*SPEF "ieee 1481-1999"
*DESIGN "counter"
*DATE "16:24:23 Tuesday March 04, 2025"
*VENDOR "The OpenROAD Project"
*PROGRAM "OpenROAD"
*VERSION "edf00dff99f6c40d67a30c0e22a8191c5d2ed9d6"
*DESIGN_FLOW "NAME_SCOPE LOCAL" "PIN_CAP NONE"
*DIVIDER /
*DELIMITER :
*BUS_DELIMITER []
*T_UNIT 1 NS
*C_UNIT 1 PF
*R_UNIT 1 OHM
*L_UNIT 1 HENRY

*NAME_MAP
*1 addr00[0]
*2 addr00[1]
*3 addr00[2]
*4 addr00[3]
*5 addr00[4]
*6 addr00[5]
*7 addr00[6]
*8 addr00[7]
*9 addr01[0]
*10 addr01[1]
*11 addr01[2]
*12 addr01[3]
*13 addr01[4]
*14 addr01[5]
*15 addr01[6]
*16 addr01[7]
*17 clk
*18 csb00
*19 csb01
*20 din00[0]
*21 din00[10]
*22 din00[11]
*23 din00[12]
*24 din00[13]
*25 din00[14]
*26 din00[15]
*27 din00[1]
*28 din00[2]
*29 din00[3]
*30 din00[4]
*31 din00[5]
*32 din00[6]
*33 din00[7]
*34 din00[8]
*35 din00[9]
*36 din01[0]
*37 din01[10]
*38 din01[11]
*39 din01[12]
*40 din01[13]
*41 din01[14]
*42 din01[15]
*43 din01[1]
*44 din01[2]
*45 din01[3]
*46 din01[4]
*47 din01[5]
*48 din01[6]
*49 din01[7]
*50 din01[8]
*51 din01[9]
*52 rst
*53 sine_out[0]
*54 sine_out[10]
*55 sine_out[11]
*56 sine_out[12]
*57 sine_out[13]
*58 sine_out[14]
*59 sine_out[15]
*60 sine_out[1]
*61 sine_out[2]
*62 sine_out[3]
*63 sine_out[4]
*64 sine_out[5]
*65 sine_out[6]
*66 sine_out[7]
*67 sine_out[8]
*68 sine_out[9]
*71 _000_
*72 _001_
*73 _002_
*74 _003_
*75 _004_
*76 _005_
*77 _006_
*78 _007_
*79 _008_
*80 _009_
*81 _010_
*82 _011_
*83 _012_
*84 _013_
*85 _014_
*86 _015_
*87 _016_
*88 _017_
*89 _018_
*90 _019_
*91 _020_
*92 _021_
*93 _022_
*94 _023_
*95 _024_
*96 _025_
*97 _026_
*98 _027_
*99 _028_
*100 _029_
*101 _030_
*102 _031_
*103 _032_
*104 _033_
*105 _034_
*106 _035_
*107 _036_
*108 _037_
*109 _038_
*110 _039_
*111 _040_
*112 _041_
*113 _042_
*114 _043_
*115 _044_
*116 _045_
*117 _046_
*118 _047_
*119 _048_
*120 _049_
*121 _050_
*122 _051_
*123 _052_
*124 _053_
*125 _054_
*126 _055_
*127 _056_
*128 _057_
*129 _058_
*130 clknet_0_clk
*131 clknet_2_0__leaf_clk
*132 clknet_2_1__leaf_clk
*133 clknet_2_2__leaf_clk
*134 clknet_2_3__leaf_clk
*135 net1
*136 net10
*137 net100
*138 net101
*139 net102
*140 net103
*141 net104
*142 net105
*143 net106
*144 net107
*145 net108
*146 net109
*147 net11
*148 net110
*149 net111
*150 net112
*151 net113
*152 net114
*153 net115
*154 net12
*155 net13
*156 net14
*157 net15
*158 net16
*159 net17
*160 net18
*161 net19
*162 net2
*163 net20
*164 net21
*165 net22
*166 net23
*167 net24
*168 net25
*169 net26
*170 net27
*171 net28
*172 net29
*173 net3
*174 net30
*175 net31
*176 net32
*177 net33
*178 net34
*179 net35
*180 net36
*181 net37
*182 net38
*183 net39
*184 net4
*185 net40
*186 net41
*187 net42
*188 net43
*189 net44
*190 net45
*191 net46
*192 net47
*193 net48
*194 net49
*195 net5
*196 net50
*197 net51
*198 net52
*199 net53
*200 net54
*201 net55
*202 net56
*203 net57
*204 net58
*205 net59
*206 net6
*207 net60
*208 net61
*209 net62
*210 net63
*211 net64
*212 net65
*213 net66
*214 net67
*215 net68
*216 net69
*217 net7
*218 net70
*219 net71
*220 net72
*221 net73
*222 net74
*223 net75
*224 net76
*225 net77
*226 net78
*227 net79
*228 net8
*229 net80
*230 net81
*231 net82
*232 net83
*233 net84
*234 net85
*235 net86
*236 net87
*237 net88
*238 net89
*239 net9
*240 net90
*241 net91
*242 net92
*243 net93
*244 net94
*245 net95
*246 net96
*247 net97
*248 net98
*249 net99
*250 sine_out_temp0\[0\]
*251 sine_out_temp0\[10\]
*252 sine_out_temp0\[11\]
*253 sine_out_temp0\[12\]
*254 sine_out_temp0\[13\]
*255 sine_out_temp0\[14\]
*256 sine_out_temp0\[15\]
*257 sine_out_temp0\[1\]
*258 sine_out_temp0\[2\]
*259 sine_out_temp0\[3\]
*260 sine_out_temp0\[4\]
*261 sine_out_temp0\[5\]
*262 sine_out_temp0\[6\]
*263 sine_out_temp0\[7\]
*264 sine_out_temp0\[8\]
*265 sine_out_temp0\[9\]
*266 sine_out_temp1\[0\]
*267 sine_out_temp1\[10\]
*268 sine_out_temp1\[11\]
*269 sine_out_temp1\[12\]
*270 sine_out_temp1\[13\]
*271 sine_out_temp1\[14\]
*272 sine_out_temp1\[15\]
*273 sine_out_temp1\[1\]
*274 sine_out_temp1\[2\]
*275 sine_out_temp1\[3\]
*276 sine_out_temp1\[4\]
*277 sine_out_temp1\[5\]
*278 sine_out_temp1\[6\]
*279 sine_out_temp1\[7\]
*280 sine_out_temp1\[8\]
*281 sine_out_temp1\[9\]
*282 tcout\[0\]
*283 tcout\[1\]
*284 tcout\[2\]
*285 tcout\[3\]
*286 tcout\[4\]
*287 tcout\[5\]
*288 tcout\[6\]
*289 tcout\[7\]
*290 tcout\[8\]
*291 ANTENNA_1
*292 ANTENNA__062__A
*293 ANTENNA__063__A0
*294 ANTENNA__063__A1
*295 ANTENNA__063__S
*296 ANTENNA__064__A0
*297 ANTENNA__064__A1
*298 ANTENNA__064__S
*299 ANTENNA__065__A0
*300 ANTENNA__065__A1
*301 ANTENNA__065__S
*302 ANTENNA__066__A0
*303 ANTENNA__066__A1
*304 ANTENNA__066__S
*305 ANTENNA__067__A0
*306 ANTENNA__067__A1
*307 ANTENNA__067__S
*308 ANTENNA__068__A0
*309 ANTENNA__068__A1
*310 ANTENNA__068__S
*311 ANTENNA__069__A0
*312 ANTENNA__069__A1
*313 ANTENNA__069__S
*314 ANTENNA__069__X
*315 ANTENNA__070__A0
*316 ANTENNA__070__A1
*317 ANTENNA__070__S
*318 ANTENNA__070__X
*319 ANTENNA__071__A0
*320 ANTENNA__071__A1
*321 ANTENNA__071__S
*322 ANTENNA__071__X
*323 ANTENNA__072__A0
*324 ANTENNA__072__A1
*325 ANTENNA__072__S
*326 ANTENNA__072__X
*327 ANTENNA__073__A0
*328 ANTENNA__073__A1
*329 ANTENNA__073__S
*330 ANTENNA__073__X
*331 ANTENNA__074__A0
*332 ANTENNA__074__A1
*333 ANTENNA__074__S
*334 ANTENNA__075__A0
*335 ANTENNA__075__A1
*336 ANTENNA__075__S
*337 ANTENNA__076__A0
*338 ANTENNA__076__A1
*339 ANTENNA__076__S
*340 ANTENNA__077__A0
*341 ANTENNA__077__A1
*342 ANTENNA__077__S
*343 ANTENNA__078__A0
*344 ANTENNA__078__A1
*345 ANTENNA__078__S
*346 ANTENNA__095__A
*347 ANTENNA__100__A
*348 ANTENNA__101__A
*349 ANTENNA__102__A
*350 ANTENNA__103__A
*351 ANTENNA__104__A
*352 ANTENNA__111__A
*353 ANTENNA__112__A
*354 ANTENNA__113__A
*355 ANTENNA__114__A
*356 ANTENNA__115__A
*357 ANTENNA__116__A
*358 ANTENNA__117__A
*359 ANTENNA__118__A
*360 ANTENNA__119__A
*361 ANTENNA__120__CLK
*362 ANTENNA__120__D
*363 ANTENNA__120__Q
*364 ANTENNA__121__CLK
*365 ANTENNA__121__D
*366 ANTENNA__121__Q
*367 ANTENNA__122__CLK
*368 ANTENNA__122__D
*369 ANTENNA__122__Q
*370 ANTENNA__123__CLK
*371 ANTENNA__123__Q
*372 ANTENNA__124__CLK
*373 ANTENNA__124__Q
*374 ANTENNA__125__CLK
*375 ANTENNA__125__Q
*376 ANTENNA__126__CLK
*377 ANTENNA__127__CLK
*378 ANTENNA__128__CLK
*379 ANTENNA__129__CLK
*380 ANTENNA__130__CLK
*381 ANTENNA__131__CLK
*382 ANTENNA__132__CLK
*383 ANTENNA__133__CLK
*384 ANTENNA__134__CLK
*385 ANTENNA__135__CLK
*386 ANTENNA__136__CLK
*387 ANTENNA__137__CLK
*388 ANTENNA__137__Q
*389 ANTENNA__138__CLK
*390 ANTENNA__138__Q
*391 ANTENNA__139__CLK
*392 ANTENNA__139__Q
*393 ANTENNA__140__CLK
*394 ANTENNA__140__Q
*395 ANTENNA__141__CLK
*396 ANTENNA__141__Q
*397 ANTENNA__142__CLK
*398 ANTENNA__142__Q
*399 ANTENNA__143__CLK
*400 ANTENNA__143__D
*401 ANTENNA__143__Q
*402 ANTENNA__144__CLK
*403 ANTENNA__144__D
*404 ANTENNA__144__Q
*405 ANTENNA_clkbuf_0_clk_A
*406 ANTENNA_clkbuf_0_clk_X
*407 ANTENNA_clkbuf_2_0__f_clk_A
*408 ANTENNA_clkbuf_2_0__f_clk_X
*409 ANTENNA_clkbuf_2_1__f_clk_A
*410 ANTENNA_clkbuf_2_1__f_clk_X
*411 ANTENNA_clkbuf_2_2__f_clk_A
*412 ANTENNA_clkbuf_2_2__f_clk_X
*413 ANTENNA_clkbuf_2_3__f_clk_A
*414 ANTENNA_clkbuf_2_3__f_clk_X
*415 ANTENNA_clkload0_A
*416 ANTENNA_clkload1_A
*417 ANTENNA_fanout111_A
*418 ANTENNA_fanout112_A
*419 ANTENNA_fanout112_X
*420 ANTENNA_fanout113_A
*421 ANTENNA_fanout113_X
*422 ANTENNA_fanout83_A
*423 ANTENNA_fanout83_X
*424 ANTENNA_fanout84_X
*425 ANTENNA_input10_A
*426 ANTENNA_input10_X
*427 ANTENNA_input11_A
*428 ANTENNA_input12_A
*429 ANTENNA_input13_A
*430 ANTENNA_input14_A
*431 ANTENNA_input15_A
*432 ANTENNA_input16_A
*433 ANTENNA_input17_A
*434 ANTENNA_input17_X
*435 ANTENNA_input18_A
*436 ANTENNA_input19_A
*437 ANTENNA_input19_X
*438 ANTENNA_input1_A
*439 ANTENNA_input1_X
*440 ANTENNA_input20_A
*441 ANTENNA_input21_A
*442 ANTENNA_input22_A
*443 ANTENNA_input23_A
*444 ANTENNA_input24_A
*445 ANTENNA_input25_A
*446 ANTENNA_input26_A
*447 ANTENNA_input26_X
*448 ANTENNA_input27_A
*449 ANTENNA_input27_X
*450 ANTENNA_input28_A
*451 ANTENNA_input28_X
*452 ANTENNA_input29_A
*453 ANTENNA_input29_X
*454 ANTENNA_input2_A
*455 ANTENNA_input2_X
*456 ANTENNA_input30_A
*457 ANTENNA_input31_A
*458 ANTENNA_input32_A
*459 ANTENNA_input33_A
*460 ANTENNA_input34_A
*461 ANTENNA_input35_A
*462 ANTENNA_input35_X
*463 ANTENNA_input36_A
*464 ANTENNA_input36_X
*465 ANTENNA_input37_A
*466 ANTENNA_input37_X
*467 ANTENNA_input38_A
*468 ANTENNA_input38_X
*469 ANTENNA_input39_A
*470 ANTENNA_input39_X
*471 ANTENNA_input3_A
*472 ANTENNA_input3_X
*473 ANTENNA_input40_A
*474 ANTENNA_input40_X
*475 ANTENNA_input41_A
*476 ANTENNA_input41_X
*477 ANTENNA_input42_A
*478 ANTENNA_input42_X
*479 ANTENNA_input43_A
*480 ANTENNA_input43_X
*481 ANTENNA_input44_A
*482 ANTENNA_input44_X
*483 ANTENNA_input45_A
*484 ANTENNA_input45_X
*485 ANTENNA_input46_A
*486 ANTENNA_input46_X
*487 ANTENNA_input47_A
*488 ANTENNA_input47_X
*489 ANTENNA_input48_A
*490 ANTENNA_input48_X
*491 ANTENNA_input49_A
*492 ANTENNA_input49_X
*493 ANTENNA_input4_A
*494 ANTENNA_input4_X
*495 ANTENNA_input50_A
*496 ANTENNA_input50_X
*497 ANTENNA_input51_A
*498 ANTENNA_input51_X
*499 ANTENNA_input5_A
*500 ANTENNA_input5_X
*501 ANTENNA_input6_A
*502 ANTENNA_input6_X
*503 ANTENNA_input7_A
*504 ANTENNA_input7_X
*505 ANTENNA_input8_A
*506 ANTENNA_input8_X
*507 ANTENNA_input9_A
*508 ANTENNA_input9_X
*509 ANTENNA_load_slew100_X
*510 ANTENNA_load_slew101_X
*511 ANTENNA_load_slew104_X
*512 ANTENNA_load_slew106_X
*513 ANTENNA_load_slew85_X
*514 ANTENNA_load_slew87_X
*515 ANTENNA_load_slew91_X
*516 ANTENNA_load_slew94_X
*517 ANTENNA_load_slew97_X
*518 ANTENNA_load_slew98_X
*519 ANTENNA_load_slew99_X
*520 ANTENNA_mem_i0_addr0\[0\]
*521 ANTENNA_mem_i0_addr0\[1\]
*522 ANTENNA_mem_i0_addr0\[2\]
*523 ANTENNA_mem_i0_addr0\[3\]
*524 ANTENNA_mem_i0_addr0\[4\]
*525 ANTENNA_mem_i0_addr0\[5\]
*526 ANTENNA_mem_i0_addr0\[6\]
*527 ANTENNA_mem_i0_addr0\[7\]
*528 ANTENNA_mem_i0_addr1\[2\]
*529 ANTENNA_mem_i0_addr1\[3\]
*530 ANTENNA_mem_i0_addr1\[4\]
*531 ANTENNA_mem_i0_addr1\[5\]
*532 ANTENNA_mem_i0_addr1\[6\]
*533 ANTENNA_mem_i0_addr1\[7\]
*534 ANTENNA_mem_i0_clk0
*535 ANTENNA_mem_i0_clk1
*536 ANTENNA_mem_i0_csb0
*537 ANTENNA_mem_i0_din0\[0\]
*538 ANTENNA_mem_i0_din0\[1\]
*539 ANTENNA_mem_i0_din0\[2\]
*540 ANTENNA_mem_i0_din0\[3\]
*541 ANTENNA_mem_i0_din0\[4\]
*542 ANTENNA_mem_i0_dout1\[0\]
*543 ANTENNA_mem_i0_dout1\[10\]
*544 ANTENNA_mem_i0_dout1\[11\]
*545 ANTENNA_mem_i0_dout1\[12\]
*546 ANTENNA_mem_i0_dout1\[13\]
*547 ANTENNA_mem_i0_dout1\[14\]
*548 ANTENNA_mem_i0_dout1\[15\]
*549 ANTENNA_mem_i0_dout1\[1\]
*550 ANTENNA_mem_i0_dout1\[2\]
*551 ANTENNA_mem_i0_dout1\[3\]
*552 ANTENNA_mem_i0_dout1\[4\]
*553 ANTENNA_mem_i0_dout1\[5\]
*554 ANTENNA_mem_i0_dout1\[6\]
*555 ANTENNA_mem_i0_dout1\[7\]
*556 ANTENNA_mem_i0_dout1\[8\]
*557 ANTENNA_mem_i0_dout1\[9\]
*558 ANTENNA_mem_i1_addr0\[0\]
*559 ANTENNA_mem_i1_addr0\[1\]
*560 ANTENNA_mem_i1_addr1\[0\]
*561 ANTENNA_mem_i1_addr1\[1\]
*562 ANTENNA_mem_i1_addr1\[2\]
*563 ANTENNA_mem_i1_addr1\[3\]
*564 ANTENNA_mem_i1_addr1\[4\]
*565 ANTENNA_mem_i1_clk0
*566 ANTENNA_mem_i1_clk1
*567 ANTENNA_mem_i1_din0\[0\]
*568 ANTENNA_mem_i1_din0\[10\]
*569 ANTENNA_mem_i1_din0\[11\]
*570 ANTENNA_mem_i1_din0\[12\]
*571 ANTENNA_mem_i1_din0\[13\]
*572 ANTENNA_mem_i1_din0\[14\]
*573 ANTENNA_mem_i1_din0\[15\]
*574 ANTENNA_mem_i1_din0\[1\]
*575 ANTENNA_mem_i1_din0\[2\]
*576 ANTENNA_mem_i1_din0\[3\]
*577 ANTENNA_mem_i1_din0\[4\]
*578 ANTENNA_mem_i1_din0\[5\]
*579 ANTENNA_mem_i1_din0\[6\]
*580 ANTENNA_mem_i1_din0\[7\]
*581 ANTENNA_mem_i1_din0\[8\]
*582 ANTENNA_mem_i1_din0\[9\]
*583 ANTENNA_mem_i1_dout1\[0\]
*584 ANTENNA_output52_A
*585 ANTENNA_output53_A
*586 ANTENNA_output54_A
*587 ANTENNA_output55_A
*588 ANTENNA_output56_A
*589 ANTENNA_output59_A
*590 ANTENNA_output60_A
*591 ANTENNA_output61_A
*592 ANTENNA_output62_A
*593 ANTENNA_output63_A
*594 ANTENNA_output64_A
*595 ANTENNA_output65_A
*596 ANTENNA_output66_A
*597 ANTENNA_output67_A
*598 ANTENNA_wire68_X
*599 ANTENNA_wire69_X
*600 ANTENNA_wire70_X
*601 ANTENNA_wire71_X
*602 ANTENNA_wire72_X
*603 ANTENNA_wire73_X
*604 ANTENNA_wire74_X
*605 ANTENNA_wire75_X
*606 ANTENNA_wire76_X
*607 ANTENNA_wire77_X
*608 ANTENNA_wire78_X
*609 ANTENNA_wire79_X
*610 ANTENNA_wire80_X
*611 ANTENNA_wire81_X
*612 ANTENNA_wire82_X
*613 FILLER_0_1005
*614 FILLER_0_1009
*615 FILLER_0_1021
*616 FILLER_0_1033
*617 FILLER_0_1037
*618 FILLER_0_1049
*619 FILLER_0_1061
*620 FILLER_0_1065
*621 FILLER_0_1077
*622 FILLER_0_1089
*623 FILLER_0_109
*624 FILLER_0_1093
*625 FILLER_0_1105
*626 FILLER_0_1117
*627 FILLER_0_1121
*628 FILLER_0_113
*629 FILLER_0_1133
*630 FILLER_0_1145
*631 FILLER_0_1149
*632 FILLER_0_1161
*633 FILLER_0_1167
*634 FILLER_0_125
*635 FILLER_0_137
*636 FILLER_0_141
*637 FILLER_0_15
*638 FILLER_0_153
*639 FILLER_0_165
*640 FILLER_0_169
*641 FILLER_0_181
*642 FILLER_0_193
*643 FILLER_0_197
*644 FILLER_0_209
*645 FILLER_0_221
*646 FILLER_0_225
*647 FILLER_0_237
*648 FILLER_0_249
*649 FILLER_0_253
*650 FILLER_0_265
*651 FILLER_0_27
*652 FILLER_0_277
*653 FILLER_0_281
*654 FILLER_0_29
*655 FILLER_0_293
*656 FILLER_0_3
*657 FILLER_0_305
*658 FILLER_0_309
*659 FILLER_0_321
*660 FILLER_0_329
*661 FILLER_0_335
*662 FILLER_0_337
*663 FILLER_0_343
*664 FILLER_0_349
*665 FILLER_0_357
*666 FILLER_0_363
*667 FILLER_0_365
*668 FILLER_0_371
*669 FILLER_0_377
*670 FILLER_0_384
*671 FILLER_0_398
*672 FILLER_0_406
*673 FILLER_0_41
*674 FILLER_0_412
*675 FILLER_0_426
*676 FILLER_0_434
*677 FILLER_0_440
*678 FILLER_0_447
*679 FILLER_0_449
*680 FILLER_0_455
*681 FILLER_0_461
*682 FILLER_0_473
*683 FILLER_0_477
*684 FILLER_0_489
*685 FILLER_0_501
*686 FILLER_0_505
*687 FILLER_0_517
*688 FILLER_0_529
*689 FILLER_0_53
*690 FILLER_0_533
*691 FILLER_0_545
*692 FILLER_0_557
*693 FILLER_0_561
*694 FILLER_0_57
*695 FILLER_0_573
*696 FILLER_0_585
*697 FILLER_0_589
*698 FILLER_0_601
*699 FILLER_0_613
*700 FILLER_0_617
*701 FILLER_0_629
*702 FILLER_0_641
*703 FILLER_0_645
*704 FILLER_0_657
*705 FILLER_0_669
*706 FILLER_0_673
*707 FILLER_0_685
*708 FILLER_0_69
*709 FILLER_0_697
*710 FILLER_0_701
*711 FILLER_0_713
*712 FILLER_0_725
*713 FILLER_0_729
*714 FILLER_0_741
*715 FILLER_0_753
*716 FILLER_0_757
*717 FILLER_0_769
*718 FILLER_0_781
*719 FILLER_0_785
*720 FILLER_0_797
*721 FILLER_0_809
*722 FILLER_0_81
*723 FILLER_0_813
*724 FILLER_0_825
*725 FILLER_0_837
*726 FILLER_0_841
*727 FILLER_0_85
*728 FILLER_0_853
*729 FILLER_0_865
*730 FILLER_0_869
*731 FILLER_0_881
*732 FILLER_0_893
*733 FILLER_0_897
*734 FILLER_0_909
*735 FILLER_0_921
*736 FILLER_0_925
*737 FILLER_0_937
*738 FILLER_0_949
*739 FILLER_0_953
*740 FILLER_0_965
*741 FILLER_0_97
*742 FILLER_0_977
*743 FILLER_0_981
*744 FILLER_0_993
*745 FILLER_100_1122
*746 FILLER_100_1134
*747 FILLER_100_1146
*748 FILLER_100_1148
*749 FILLER_100_1160
*750 FILLER_100_15
*751 FILLER_100_27
*752 FILLER_100_29
*753 FILLER_100_3
*754 FILLER_100_41
*755 FILLER_100_53
*756 FILLER_100_65
*757 FILLER_101_1122
*758 FILLER_101_1134
*759 FILLER_101_1146
*760 FILLER_101_1158
*761 FILLER_101_1166
*762 FILLER_101_15
*763 FILLER_101_27
*764 FILLER_101_3
*765 FILLER_101_39
*766 FILLER_101_51
*767 FILLER_101_55
*768 FILLER_101_57
*769 FILLER_101_69
*770 FILLER_102_1122
*771 FILLER_102_1134
*772 FILLER_102_1146
*773 FILLER_102_1148
*774 FILLER_102_1160
*775 FILLER_102_15
*776 FILLER_102_27
*777 FILLER_102_29
*778 FILLER_102_3
*779 FILLER_102_41
*780 FILLER_102_53
*781 FILLER_102_65
*782 FILLER_103_1122
*783 FILLER_103_1134
*784 FILLER_103_1146
*785 FILLER_103_1158
*786 FILLER_103_1166
*787 FILLER_103_15
*788 FILLER_103_27
*789 FILLER_103_3
*790 FILLER_103_39
*791 FILLER_103_51
*792 FILLER_103_55
*793 FILLER_103_57
*794 FILLER_103_69
*795 FILLER_104_1122
*796 FILLER_104_1134
*797 FILLER_104_1146
*798 FILLER_104_1148
*799 FILLER_104_1160
*800 FILLER_104_15
*801 FILLER_104_27
*802 FILLER_104_29
*803 FILLER_104_3
*804 FILLER_104_41
*805 FILLER_104_53
*806 FILLER_104_65
*807 FILLER_105_1122
*808 FILLER_105_1134
*809 FILLER_105_1146
*810 FILLER_105_1158
*811 FILLER_105_1166
*812 FILLER_105_15
*813 FILLER_105_27
*814 FILLER_105_3
*815 FILLER_105_39
*816 FILLER_105_51
*817 FILLER_105_55
*818 FILLER_105_57
*819 FILLER_106_1125
*820 FILLER_106_1137
*821 FILLER_106_1145
*822 FILLER_106_1148
*823 FILLER_106_1160
*824 FILLER_106_15
*825 FILLER_106_27
*826 FILLER_106_29
*827 FILLER_106_3
*828 FILLER_106_41
*829 FILLER_106_49
*830 FILLER_107_1122
*831 FILLER_107_1134
*832 FILLER_107_1146
*833 FILLER_107_1158
*834 FILLER_107_1166
*835 FILLER_107_15
*836 FILLER_107_27
*837 FILLER_107_3
*838 FILLER_107_39
*839 FILLER_107_51
*840 FILLER_107_55
*841 FILLER_107_57
*842 FILLER_107_65
*843 FILLER_108_1122
*844 FILLER_108_1134
*845 FILLER_108_1146
*846 FILLER_108_1148
*847 FILLER_108_1160
*848 FILLER_108_15
*849 FILLER_108_27
*850 FILLER_108_29
*851 FILLER_108_3
*852 FILLER_108_41
*853 FILLER_108_53
*854 FILLER_108_65
*855 FILLER_109_1122
*856 FILLER_109_1134
*857 FILLER_109_1146
*858 FILLER_109_1158
*859 FILLER_109_1166
*860 FILLER_109_15
*861 FILLER_109_27
*862 FILLER_109_3
*863 FILLER_109_39
*864 FILLER_109_51
*865 FILLER_109_55
*866 FILLER_109_57
*867 FILLER_109_69
*868 FILLER_10_1122
*869 FILLER_10_1134
*870 FILLER_10_1146
*871 FILLER_10_1148
*872 FILLER_10_1160
*873 FILLER_10_13
*874 FILLER_10_25
*875 FILLER_10_29
*876 FILLER_10_41
*877 FILLER_10_53
*878 FILLER_10_65
*879 FILLER_110_1122
*880 FILLER_110_1134
*881 FILLER_110_1146
*882 FILLER_110_1148
*883 FILLER_110_1160
*884 FILLER_110_15
*885 FILLER_110_27
*886 FILLER_110_29
*887 FILLER_110_3
*888 FILLER_110_41
*889 FILLER_110_53
*890 FILLER_110_65
*891 FILLER_111_1122
*892 FILLER_111_1134
*893 FILLER_111_1146
*894 FILLER_111_1158
*895 FILLER_111_1166
*896 FILLER_111_15
*897 FILLER_111_27
*898 FILLER_111_3
*899 FILLER_111_39
*900 FILLER_111_51
*901 FILLER_111_55
*902 FILLER_111_57
*903 FILLER_111_69
*904 FILLER_112_1122
*905 FILLER_112_1134
*906 FILLER_112_1146
*907 FILLER_112_1148
*908 FILLER_112_1160
*909 FILLER_112_15
*910 FILLER_112_27
*911 FILLER_112_29
*912 FILLER_112_3
*913 FILLER_112_41
*914 FILLER_112_53
*915 FILLER_112_65
*916 FILLER_113_1122
*917 FILLER_113_1134
*918 FILLER_113_1146
*919 FILLER_113_1158
*920 FILLER_113_1166
*921 FILLER_113_15
*922 FILLER_113_27
*923 FILLER_113_3
*924 FILLER_113_39
*925 FILLER_113_51
*926 FILLER_113_55
*927 FILLER_113_57
*928 FILLER_113_69
*929 FILLER_114_1122
*930 FILLER_114_1134
*931 FILLER_114_1146
*932 FILLER_114_1148
*933 FILLER_114_1160
*934 FILLER_114_15
*935 FILLER_114_27
*936 FILLER_114_29
*937 FILLER_114_3
*938 FILLER_114_41
*939 FILLER_114_53
*940 FILLER_114_65
*941 FILLER_115_1122
*942 FILLER_115_1134
*943 FILLER_115_1146
*944 FILLER_115_1158
*945 FILLER_115_1166
*946 FILLER_115_15
*947 FILLER_115_27
*948 FILLER_115_3
*949 FILLER_115_39
*950 FILLER_115_51
*951 FILLER_115_55
*952 FILLER_115_57
*953 FILLER_115_69
*954 FILLER_116_1122
*955 FILLER_116_1134
*956 FILLER_116_1146
*957 FILLER_116_1148
*958 FILLER_116_1160
*959 FILLER_116_15
*960 FILLER_116_27
*961 FILLER_116_29
*962 FILLER_116_3
*963 FILLER_116_41
*964 FILLER_116_53
*965 FILLER_116_65
*966 FILLER_117_1004
*967 FILLER_117_1009
*968 FILLER_117_1039
*969 FILLER_117_1051
*970 FILLER_117_1063
*971 FILLER_117_1065
*972 FILLER_117_1077
*973 FILLER_117_1089
*974 FILLER_117_109
*975 FILLER_117_1093
*976 FILLER_117_1105
*977 FILLER_117_1117
*978 FILLER_117_1121
*979 FILLER_117_113
*980 FILLER_117_1133
*981 FILLER_117_1145
*982 FILLER_117_1149
*983 FILLER_117_1161
*984 FILLER_117_1167
*985 FILLER_117_125
*986 FILLER_117_137
*987 FILLER_117_141
*988 FILLER_117_15
*989 FILLER_117_153
*990 FILLER_117_165
*991 FILLER_117_169
*992 FILLER_117_181
*993 FILLER_117_193
*994 FILLER_117_197
*995 FILLER_117_209
*996 FILLER_117_221
*997 FILLER_117_225
*998 FILLER_117_237
*999 FILLER_117_249
*1000 FILLER_117_253
*1001 FILLER_117_265
*1002 FILLER_117_27
*1003 FILLER_117_277
*1004 FILLER_117_281
*1005 FILLER_117_29
*1006 FILLER_117_293
*1007 FILLER_117_3
*1008 FILLER_117_305
*1009 FILLER_117_309
*1010 FILLER_117_321
*1011 FILLER_117_333
*1012 FILLER_117_337
*1013 FILLER_117_349
*1014 FILLER_117_361
*1015 FILLER_117_365
*1016 FILLER_117_377
*1017 FILLER_117_382
*1018 FILLER_117_390
*1019 FILLER_117_393
*1020 FILLER_117_405
*1021 FILLER_117_41
*1022 FILLER_117_410
*1023 FILLER_117_418
*1024 FILLER_117_421
*1025 FILLER_117_433
*1026 FILLER_117_437
*1027 FILLER_117_445
*1028 FILLER_117_449
*1029 FILLER_117_461
*1030 FILLER_117_464
*1031 FILLER_117_477
*1032 FILLER_117_491
*1033 FILLER_117_503
*1034 FILLER_117_505
*1035 FILLER_117_513
*1036 FILLER_117_518
*1037 FILLER_117_53
*1038 FILLER_117_530
*1039 FILLER_117_533
*1040 FILLER_117_541
*1041 FILLER_117_545
*1042 FILLER_117_557
*1043 FILLER_117_561
*1044 FILLER_117_569
*1045 FILLER_117_57
*1046 FILLER_117_572
*1047 FILLER_117_584
*1048 FILLER_117_589
*1049 FILLER_117_597
*1050 FILLER_117_600
*1051 FILLER_117_612
*1052 FILLER_117_617
*1053 FILLER_117_627
*1054 FILLER_117_639
*1055 FILLER_117_643
*1056 FILLER_117_645
*1057 FILLER_117_651
*1058 FILLER_117_654
*1059 FILLER_117_666
*1060 FILLER_117_673
*1061 FILLER_117_681
*1062 FILLER_117_69
*1063 FILLER_117_693
*1064 FILLER_117_699
*1065 FILLER_117_701
*1066 FILLER_117_705
*1067 FILLER_117_708
*1068 FILLER_117_720
*1069 FILLER_117_729
*1070 FILLER_117_735
*1071 FILLER_117_747
*1072 FILLER_117_755
*1073 FILLER_117_757
*1074 FILLER_117_762
*1075 FILLER_117_774
*1076 FILLER_117_782
*1077 FILLER_117_785
*1078 FILLER_117_789
*1079 FILLER_117_801
*1080 FILLER_117_809
*1081 FILLER_117_81
*1082 FILLER_117_813
*1083 FILLER_117_825
*1084 FILLER_117_837
*1085 FILLER_117_841
*1086 FILLER_117_85
*1087 FILLER_117_853
*1088 FILLER_117_865
*1089 FILLER_117_869
*1090 FILLER_117_881
*1091 FILLER_117_893
*1092 FILLER_117_897
*1093 FILLER_117_909
*1094 FILLER_117_913
*1095 FILLER_117_920
*1096 FILLER_117_97
*1097 FILLER_117_992
*1098 FILLER_118_1000
*1099 FILLER_118_1012
*1100 FILLER_118_1024
*1101 FILLER_118_1037
*1102 FILLER_118_1049
*1103 FILLER_118_1061
*1104 FILLER_118_1073
*1105 FILLER_118_1085
*1106 FILLER_118_109
*1107 FILLER_118_1091
*1108 FILLER_118_1093
*1109 FILLER_118_1105
*1110 FILLER_118_1117
*1111 FILLER_118_1129
*1112 FILLER_118_1141
*1113 FILLER_118_1147
*1114 FILLER_118_1149
*1115 FILLER_118_1161
*1116 FILLER_118_1167
*1117 FILLER_118_121
*1118 FILLER_118_133
*1119 FILLER_118_139
*1120 FILLER_118_141
*1121 FILLER_118_15
*1122 FILLER_118_153
*1123 FILLER_118_165
*1124 FILLER_118_177
*1125 FILLER_118_189
*1126 FILLER_118_195
*1127 FILLER_118_197
*1128 FILLER_118_209
*1129 FILLER_118_221
*1130 FILLER_118_233
*1131 FILLER_118_245
*1132 FILLER_118_251
*1133 FILLER_118_253
*1134 FILLER_118_265
*1135 FILLER_118_27
*1136 FILLER_118_277
*1137 FILLER_118_289
*1138 FILLER_118_29
*1139 FILLER_118_3
*1140 FILLER_118_301
*1141 FILLER_118_307
*1142 FILLER_118_309
*1143 FILLER_118_321
*1144 FILLER_118_333
*1145 FILLER_118_345
*1146 FILLER_118_357
*1147 FILLER_118_363
*1148 FILLER_118_365
*1149 FILLER_118_377
*1150 FILLER_118_389
*1151 FILLER_118_401
*1152 FILLER_118_41
*1153 FILLER_118_413
*1154 FILLER_118_419
*1155 FILLER_118_421
*1156 FILLER_118_433
*1157 FILLER_118_445
*1158 FILLER_118_457
*1159 FILLER_118_469
*1160 FILLER_118_475
*1161 FILLER_118_477
*1162 FILLER_118_489
*1163 FILLER_118_501
*1164 FILLER_118_513
*1165 FILLER_118_525
*1166 FILLER_118_53
*1167 FILLER_118_531
*1168 FILLER_118_533
*1169 FILLER_118_545
*1170 FILLER_118_557
*1171 FILLER_118_569
*1172 FILLER_118_581
*1173 FILLER_118_587
*1174 FILLER_118_589
*1175 FILLER_118_601
*1176 FILLER_118_613
*1177 FILLER_118_625
*1178 FILLER_118_637
*1179 FILLER_118_643
*1180 FILLER_118_645
*1181 FILLER_118_65
*1182 FILLER_118_657
*1183 FILLER_118_669
*1184 FILLER_118_681
*1185 FILLER_118_693
*1186 FILLER_118_699
*1187 FILLER_118_701
*1188 FILLER_118_713
*1189 FILLER_118_725
*1190 FILLER_118_737
*1191 FILLER_118_749
*1192 FILLER_118_755
*1193 FILLER_118_757
*1194 FILLER_118_769
*1195 FILLER_118_77
*1196 FILLER_118_781
*1197 FILLER_118_793
*1198 FILLER_118_805
*1199 FILLER_118_811
*1200 FILLER_118_813
*1201 FILLER_118_825
*1202 FILLER_118_83
*1203 FILLER_118_837
*1204 FILLER_118_849
*1205 FILLER_118_85
*1206 FILLER_118_861
*1207 FILLER_118_867
*1208 FILLER_118_869
*1209 FILLER_118_881
*1210 FILLER_118_893
*1211 FILLER_118_921
*1212 FILLER_118_925
*1213 FILLER_118_933
*1214 FILLER_118_97
*1215 FILLER_118_988
*1216 FILLER_119_1000
*1217 FILLER_119_1009
*1218 FILLER_119_1021
*1219 FILLER_119_1033
*1220 FILLER_119_1045
*1221 FILLER_119_105
*1222 FILLER_119_1057
*1223 FILLER_119_1063
*1224 FILLER_119_1065
*1225 FILLER_119_1077
*1226 FILLER_119_1089
*1227 FILLER_119_1101
*1228 FILLER_119_111
*1229 FILLER_119_1113
*1230 FILLER_119_1119
*1231 FILLER_119_1121
*1232 FILLER_119_113
*1233 FILLER_119_1133
*1234 FILLER_119_1145
*1235 FILLER_119_1157
*1236 FILLER_119_1165
*1237 FILLER_119_125
*1238 FILLER_119_137
*1239 FILLER_119_149
*1240 FILLER_119_15
*1241 FILLER_119_161
*1242 FILLER_119_167
*1243 FILLER_119_169
*1244 FILLER_119_181
*1245 FILLER_119_193
*1246 FILLER_119_205
*1247 FILLER_119_217
*1248 FILLER_119_223
*1249 FILLER_119_225
*1250 FILLER_119_237
*1251 FILLER_119_249
*1252 FILLER_119_261
*1253 FILLER_119_27
*1254 FILLER_119_273
*1255 FILLER_119_279
*1256 FILLER_119_281
*1257 FILLER_119_293
*1258 FILLER_119_3
*1259 FILLER_119_305
*1260 FILLER_119_317
*1261 FILLER_119_329
*1262 FILLER_119_335
*1263 FILLER_119_337
*1264 FILLER_119_349
*1265 FILLER_119_361
*1266 FILLER_119_373
*1267 FILLER_119_385
*1268 FILLER_119_39
*1269 FILLER_119_391
*1270 FILLER_119_393
*1271 FILLER_119_405
*1272 FILLER_119_417
*1273 FILLER_119_429
*1274 FILLER_119_441
*1275 FILLER_119_447
*1276 FILLER_119_449
*1277 FILLER_119_461
*1278 FILLER_119_473
*1279 FILLER_119_485
*1280 FILLER_119_497
*1281 FILLER_119_503
*1282 FILLER_119_505
*1283 FILLER_119_51
*1284 FILLER_119_517
*1285 FILLER_119_529
*1286 FILLER_119_541
*1287 FILLER_119_55
*1288 FILLER_119_553
*1289 FILLER_119_559
*1290 FILLER_119_561
*1291 FILLER_119_57
*1292 FILLER_119_573
*1293 FILLER_119_585
*1294 FILLER_119_597
*1295 FILLER_119_609
*1296 FILLER_119_615
*1297 FILLER_119_617
*1298 FILLER_119_629
*1299 FILLER_119_641
*1300 FILLER_119_653
*1301 FILLER_119_665
*1302 FILLER_119_671
*1303 FILLER_119_673
*1304 FILLER_119_685
*1305 FILLER_119_69
*1306 FILLER_119_697
*1307 FILLER_119_709
*1308 FILLER_119_721
*1309 FILLER_119_727
*1310 FILLER_119_729
*1311 FILLER_119_741
*1312 FILLER_119_753
*1313 FILLER_119_765
*1314 FILLER_119_777
*1315 FILLER_119_783
*1316 FILLER_119_785
*1317 FILLER_119_797
*1318 FILLER_119_809
*1319 FILLER_119_81
*1320 FILLER_119_821
*1321 FILLER_119_833
*1322 FILLER_119_839
*1323 FILLER_119_841
*1324 FILLER_119_853
*1325 FILLER_119_865
*1326 FILLER_119_877
*1327 FILLER_119_889
*1328 FILLER_119_895
*1329 FILLER_119_897
*1330 FILLER_119_901
*1331 FILLER_119_908
*1332 FILLER_119_920
*1333 FILLER_119_928
*1334 FILLER_119_93
*1335 FILLER_119_988
*1336 FILLER_11_1122
*1337 FILLER_11_1134
*1338 FILLER_11_1146
*1339 FILLER_11_1158
*1340 FILLER_11_1166
*1341 FILLER_11_15
*1342 FILLER_11_27
*1343 FILLER_11_39
*1344 FILLER_11_51
*1345 FILLER_11_55
*1346 FILLER_11_57
*1347 FILLER_11_69
*1348 FILLER_120_1010
*1349 FILLER_120_1022
*1350 FILLER_120_1034
*1351 FILLER_120_1037
*1352 FILLER_120_1049
*1353 FILLER_120_1061
*1354 FILLER_120_1073
*1355 FILLER_120_1085
*1356 FILLER_120_109
*1357 FILLER_120_1091
*1358 FILLER_120_1093
*1359 FILLER_120_1105
*1360 FILLER_120_1117
*1361 FILLER_120_1129
*1362 FILLER_120_1141
*1363 FILLER_120_1147
*1364 FILLER_120_1149
*1365 FILLER_120_121
*1366 FILLER_120_133
*1367 FILLER_120_139
*1368 FILLER_120_141
*1369 FILLER_120_15
*1370 FILLER_120_153
*1371 FILLER_120_165
*1372 FILLER_120_177
*1373 FILLER_120_189
*1374 FILLER_120_195
*1375 FILLER_120_197
*1376 FILLER_120_209
*1377 FILLER_120_221
*1378 FILLER_120_233
*1379 FILLER_120_245
*1380 FILLER_120_251
*1381 FILLER_120_253
*1382 FILLER_120_265
*1383 FILLER_120_27
*1384 FILLER_120_277
*1385 FILLER_120_289
*1386 FILLER_120_29
*1387 FILLER_120_3
*1388 FILLER_120_301
*1389 FILLER_120_307
*1390 FILLER_120_309
*1391 FILLER_120_321
*1392 FILLER_120_333
*1393 FILLER_120_345
*1394 FILLER_120_357
*1395 FILLER_120_363
*1396 FILLER_120_365
*1397 FILLER_120_377
*1398 FILLER_120_389
*1399 FILLER_120_401
*1400 FILLER_120_41
*1401 FILLER_120_413
*1402 FILLER_120_419
*1403 FILLER_120_421
*1404 FILLER_120_433
*1405 FILLER_120_445
*1406 FILLER_120_457
*1407 FILLER_120_469
*1408 FILLER_120_475
*1409 FILLER_120_477
*1410 FILLER_120_489
*1411 FILLER_120_501
*1412 FILLER_120_513
*1413 FILLER_120_525
*1414 FILLER_120_53
*1415 FILLER_120_531
*1416 FILLER_120_533
*1417 FILLER_120_545
*1418 FILLER_120_557
*1419 FILLER_120_569
*1420 FILLER_120_581
*1421 FILLER_120_587
*1422 FILLER_120_589
*1423 FILLER_120_601
*1424 FILLER_120_613
*1425 FILLER_120_625
*1426 FILLER_120_637
*1427 FILLER_120_643
*1428 FILLER_120_645
*1429 FILLER_120_65
*1430 FILLER_120_657
*1431 FILLER_120_669
*1432 FILLER_120_681
*1433 FILLER_120_693
*1434 FILLER_120_699
*1435 FILLER_120_701
*1436 FILLER_120_713
*1437 FILLER_120_725
*1438 FILLER_120_737
*1439 FILLER_120_749
*1440 FILLER_120_755
*1441 FILLER_120_757
*1442 FILLER_120_769
*1443 FILLER_120_77
*1444 FILLER_120_781
*1445 FILLER_120_793
*1446 FILLER_120_805
*1447 FILLER_120_811
*1448 FILLER_120_813
*1449 FILLER_120_825
*1450 FILLER_120_83
*1451 FILLER_120_837
*1452 FILLER_120_849
*1453 FILLER_120_85
*1454 FILLER_120_861
*1455 FILLER_120_867
*1456 FILLER_120_869
*1457 FILLER_120_881
*1458 FILLER_120_893
*1459 FILLER_120_905
*1460 FILLER_120_917
*1461 FILLER_120_923
*1462 FILLER_120_928
*1463 FILLER_120_940
*1464 FILLER_120_948
*1465 FILLER_120_954
*1466 FILLER_120_958
*1467 FILLER_120_97
*1468 FILLER_120_973
*1469 FILLER_120_979
*1470 FILLER_120_981
*1471 FILLER_120_989
*1472 FILLER_120_998
*1473 FILLER_121_1006
*1474 FILLER_121_1009
*1475 FILLER_121_1021
*1476 FILLER_121_1033
*1477 FILLER_121_1045
*1478 FILLER_121_105
*1479 FILLER_121_1057
*1480 FILLER_121_1063
*1481 FILLER_121_1065
*1482 FILLER_121_1077
*1483 FILLER_121_1089
*1484 FILLER_121_1101
*1485 FILLER_121_111
*1486 FILLER_121_1113
*1487 FILLER_121_1119
*1488 FILLER_121_1121
*1489 FILLER_121_113
*1490 FILLER_121_1133
*1491 FILLER_121_1145
*1492 FILLER_121_1157
*1493 FILLER_121_1165
*1494 FILLER_121_125
*1495 FILLER_121_137
*1496 FILLER_121_149