*SPEF "ieee 1481-1999"
*DESIGN "counter"
*DATE "15:52:11 Tuesday March 04, 2025"
*VENDOR "The OpenROAD Project"
*PROGRAM "OpenROAD"
*VERSION "edf00dff99f6c40d67a30c0e22a8191c5d2ed9d6"
*DESIGN_FLOW "NAME_SCOPE LOCAL" "PIN_CAP NONE"
*DIVIDER /
*DELIMITER :
*BUS_DELIMITER []
*T_UNIT 1 NS
*C_UNIT 1 PF
*R_UNIT 1 OHM
*L_UNIT 1 HENRY

*NAME_MAP
*1 addr00[0]
*2 addr00[1]
*3 addr00[2]
*4 addr00[3]
*5 addr00[4]
*6 addr00[5]
*7 addr00[6]
*8 addr00[7]
*9 addr01[0]
*10 addr01[1]
*11 addr01[2]
*12 addr01[3]
*13 addr01[4]
*14 addr01[5]
*15 addr01[6]
*16 addr01[7]
*17 clk
*18 csb00
*19 csb01
*20 din00[0]
*21 din00[10]
*22 din00[11]
*23 din00[12]
*24 din00[13]
*25 din00[14]
*26 din00[15]
*27 din00[1]
*28 din00[2]
*29 din00[3]
*30 din00[4]
*31 din00[5]
*32 din00[6]
*33 din00[7]
*34 din00[8]
*35 din00[9]
*36 din01[0]
*37 din01[10]
*38 din01[11]
*39 din01[12]
*40 din01[13]
*41 din01[14]
*42 din01[15]
*43 din01[1]
*44 din01[2]
*45 din01[3]
*46 din01[4]
*47 din01[5]
*48 din01[6]
*49 din01[7]
*50 din01[8]
*51 din01[9]
*52 rst
*53 sine_out[0]
*54 sine_out[10]
*55 sine_out[11]
*56 sine_out[12]
*57 sine_out[13]
*58 sine_out[14]
*59 sine_out[15]
*60 sine_out[1]
*61 sine_out[2]
*62 sine_out[3]
*63 sine_out[4]
*64 sine_out[5]
*65 sine_out[6]
*66 sine_out[7]
*67 sine_out[8]
*68 sine_out[9]
*71 _000_
*72 _001_
*73 _002_
*74 _003_
*75 _004_
*76 _005_
*77 _006_
*78 _007_
*79 _008_
*80 _009_
*81 _010_
*82 _011_
*83 _012_
*84 _013_
*85 _014_
*86 _015_
*87 _016_
*88 _017_
*89 _018_
*90 _019_
*91 _020_
*92 _021_
*93 _022_
*94 _023_
*95 _024_
*96 _025_
*97 _026_
*98 _027_
*99 _028_
*100 _029_
*101 _030_
*102 _031_
*103 _032_
*104 _033_
*105 _034_
*106 _035_
*107 _036_
*108 _037_
*109 _038_
*110 _039_
*111 _040_
*112 _041_
*113 _042_
*114 _043_
*115 _044_
*116 _045_
*117 _046_
*118 _047_
*119 _048_
*120 _049_
*121 _050_
*122 _051_
*123 _052_
*124 _053_
*125 _054_
*126 _055_
*127 _056_
*128 _057_
*129 _058_
*130 clknet_0_clk
*131 clknet_2_0__leaf_clk
*132 clknet_2_1__leaf_clk
*133 clknet_2_2__leaf_clk
*134 clknet_2_3__leaf_clk
*135 net1
*136 net10
*137 net100
*138 net101
*139 net102
*140 net103
*141 net104
*142 net105
*143 net106
*144 net107
*145 net108
*146 net109
*147 net11
*148 net110
*149 net111
*150 net112
*151 net113
*152 net114
*153 net115
*154 net116
*155 net117
*156 net118
*157 net119
*158 net12
*159 net13
*160 net14
*161 net15
*162 net16
*163 net17
*164 net18
*165 net19
*166 net2
*167 net20
*168 net21
*169 net22
*170 net23
*171 net24
*172 net25
*173 net26
*174 net27
*175 net28
*176 net29
*177 net3
*178 net30
*179 net31
*180 net32
*181 net33
*182 net34
*183 net35
*184 net36
*185 net37
*186 net38
*187 net39
*188 net4
*189 net40
*190 net41
*191 net42
*192 net43
*193 net44
*194 net45
*195 net46
*196 net47
*197 net48
*198 net49
*199 net5
*200 net50
*201 net51
*202 net52
*203 net53
*204 net54
*205 net55
*206 net56
*207 net57
*208 net58
*209 net59
*210 net6
*211 net60
*212 net61
*213 net62
*214 net63
*215 net64
*216 net65
*217 net66
*218 net67
*219 net68
*220 net69
*221 net7
*222 net70
*223 net71
*224 net72
*225 net73
*226 net74
*227 net75
*228 net76
*229 net77
*230 net78
*231 net79
*232 net8
*233 net80
*234 net81
*235 net82
*236 net83
*237 net84
*238 net85
*239 net86
*240 net87
*241 net88
*242 net89
*243 net9
*244 net90
*245 net91
*246 net92
*247 net93
*248 net94
*249 net95
*250 net96
*251 net97
*252 net98
*253 net99
*254 sine_out_temp0\[0\]
*255 sine_out_temp0\[10\]
*256 sine_out_temp0\[11\]
*257 sine_out_temp0\[12\]
*258 sine_out_temp0\[13\]
*259 sine_out_temp0\[14\]
*260 sine_out_temp0\[15\]
*261 sine_out_temp0\[1\]
*262 sine_out_temp0\[2\]
*263 sine_out_temp0\[3\]
*264 sine_out_temp0\[4\]
*265 sine_out_temp0\[5\]
*266 sine_out_temp0\[6\]
*267 sine_out_temp0\[7\]
*268 sine_out_temp0\[8\]
*269 sine_out_temp0\[9\]
*270 sine_out_temp1\[0\]
*271 sine_out_temp1\[10\]
*272 sine_out_temp1\[11\]
*273 sine_out_temp1\[12\]
*274 sine_out_temp1\[13\]
*275 sine_out_temp1\[14\]
*276 sine_out_temp1\[15\]
*277 sine_out_temp1\[1\]
*278 sine_out_temp1\[2\]
*279 sine_out_temp1\[3\]
*280 sine_out_temp1\[4\]
*281 sine_out_temp1\[5\]
*282 sine_out_temp1\[6\]
*283 sine_out_temp1\[7\]
*284 sine_out_temp1\[8\]
*285 sine_out_temp1\[9\]
*286 tcout\[0\]
*287 tcout\[1\]
*288 tcout\[2\]
*289 tcout\[3\]
*290 tcout\[4\]
*291 tcout\[5\]
*292 tcout\[6\]
*293 tcout\[7\]
*294 tcout\[8\]
*295 ANTENNA_1
*296 ANTENNA__062__A
*297 ANTENNA__063__A0
*298 ANTENNA__063__A1
*299 ANTENNA__063__S
*300 ANTENNA__064__A0
*301 ANTENNA__064__A1
*302 ANTENNA__064__S
*303 ANTENNA__065__A0
*304 ANTENNA__065__A1
*305 ANTENNA__065__S
*306 ANTENNA__066__A0
*307 ANTENNA__066__A1
*308 ANTENNA__066__S
*309 ANTENNA__067__A0
*310 ANTENNA__067__A1
*311 ANTENNA__067__S
*312 ANTENNA__068__A0
*313 ANTENNA__068__A1
*314 ANTENNA__068__S
*315 ANTENNA__069__A0
*316 ANTENNA__069__A1
*317 ANTENNA__069__S
*318 ANTENNA__069__X
*319 ANTENNA__070__A0
*320 ANTENNA__070__A1
*321 ANTENNA__070__S
*322 ANTENNA__070__X
*323 ANTENNA__071__A0
*324 ANTENNA__071__A1
*325 ANTENNA__071__S
*326 ANTENNA__071__X
*327 ANTENNA__072__A0
*328 ANTENNA__072__A1
*329 ANTENNA__072__S
*330 ANTENNA__072__X
*331 ANTENNA__073__A0
*332 ANTENNA__073__A1
*333 ANTENNA__073__S
*334 ANTENNA__073__X
*335 ANTENNA__074__A0
*336 ANTENNA__074__A1
*337 ANTENNA__074__S
*338 ANTENNA__075__A0
*339 ANTENNA__075__A1
*340 ANTENNA__075__S
*341 ANTENNA__076__A0
*342 ANTENNA__076__A1
*343 ANTENNA__076__S
*344 ANTENNA__077__A0
*345 ANTENNA__077__A1
*346 ANTENNA__077__S
*347 ANTENNA__078__A0
*348 ANTENNA__078__A1
*349 ANTENNA__078__S
*350 ANTENNA__095__A
*351 ANTENNA__100__A
*352 ANTENNA__101__A
*353 ANTENNA__102__A
*354 ANTENNA__103__A
*355 ANTENNA__104__A
*356 ANTENNA__111__A
*357 ANTENNA__112__A
*358 ANTENNA__113__A
*359 ANTENNA__114__A
*360 ANTENNA__115__A
*361 ANTENNA__116__A
*362 ANTENNA__117__A
*363 ANTENNA__118__A
*364 ANTENNA__119__A
*365 ANTENNA__120__CLK
*366 ANTENNA__120__D
*367 ANTENNA__120__Q
*368 ANTENNA__121__CLK
*369 ANTENNA__121__D
*370 ANTENNA__121__Q
*371 ANTENNA__122__CLK
*372 ANTENNA__122__D
*373 ANTENNA__122__Q
*374 ANTENNA__123__CLK
*375 ANTENNA__123__Q
*376 ANTENNA__124__CLK
*377 ANTENNA__124__Q
*378 ANTENNA__125__CLK
*379 ANTENNA__125__Q
*380 ANTENNA__126__CLK
*381 ANTENNA__127__CLK
*382 ANTENNA__128__CLK
*383 ANTENNA__129__CLK
*384 ANTENNA__130__CLK
*385 ANTENNA__131__CLK
*386 ANTENNA__132__CLK
*387 ANTENNA__133__CLK
*388 ANTENNA__134__CLK
*389 ANTENNA__135__CLK
*390 ANTENNA__136__CLK
*391 ANTENNA__137__CLK
*392 ANTENNA__137__Q
*393 ANTENNA__138__CLK
*394 ANTENNA__138__Q
*395 ANTENNA__139__CLK
*396 ANTENNA__139__Q
*397 ANTENNA__140__CLK
*398 ANTENNA__140__Q
*399 ANTENNA__141__CLK
*400 ANTENNA__141__Q
*401 ANTENNA__142__CLK
*402 ANTENNA__142__Q
*403 ANTENNA__143__CLK
*404 ANTENNA__143__D
*405 ANTENNA__143__Q
*406 ANTENNA__144__CLK
*407 ANTENNA__144__D
*408 ANTENNA__144__Q
*409 ANTENNA_clkbuf_0_clk_A
*410 ANTENNA_clkbuf_0_clk_X
*411 ANTENNA_clkbuf_2_0__f_clk_A
*412 ANTENNA_clkbuf_2_0__f_clk_X
*413 ANTENNA_clkbuf_2_1__f_clk_A
*414 ANTENNA_clkbuf_2_1__f_clk_X
*415 ANTENNA_clkbuf_2_2__f_clk_A
*416 ANTENNA_clkbuf_2_2__f_clk_X
*417 ANTENNA_clkbuf_2_3__f_clk_A
*418 ANTENNA_clkbuf_2_3__f_clk_X
*419 ANTENNA_clkload0_A
*420 ANTENNA_clkload1_A
*421 ANTENNA_fanout108_A
*422 ANTENNA_fanout109_A
*423 ANTENNA_fanout109_X
*424 ANTENNA_fanout110_A
*425 ANTENNA_fanout110_X
*426 ANTENNA_fanout83_A
*427 ANTENNA_fanout83_X
*428 ANTENNA_fanout84_X
*429 ANTENNA_input10_A
*430 ANTENNA_input10_X
*431 ANTENNA_input11_A
*432 ANTENNA_input12_A
*433 ANTENNA_input13_A
*434 ANTENNA_input14_A
*435 ANTENNA_input15_A
*436 ANTENNA_input16_A
*437 ANTENNA_input17_A
*438 ANTENNA_input17_X
*439 ANTENNA_input18_A
*440 ANTENNA_input19_A
*441 ANTENNA_input19_X
*442 ANTENNA_input1_A
*443 ANTENNA_input1_X
*444 ANTENNA_input20_A
*445 ANTENNA_input21_A
*446 ANTENNA_input22_A
*447 ANTENNA_input23_A
*448 ANTENNA_input24_A
*449 ANTENNA_input25_A
*450 ANTENNA_input26_A
*451 ANTENNA_input26_X
*452 ANTENNA_input27_A
*453 ANTENNA_input27_X
*454 ANTENNA_input28_A
*455 ANTENNA_input28_X
*456 ANTENNA_input29_A
*457 ANTENNA_input29_X
*458 ANTENNA_input2_A
*459 ANTENNA_input2_X
*460 ANTENNA_input30_A
*461 ANTENNA_input31_A
*462 ANTENNA_input32_A
*463 ANTENNA_input33_A
*464 ANTENNA_input34_A
*465 ANTENNA_input35_A
*466 ANTENNA_input35_X
*467 ANTENNA_input36_A
*468 ANTENNA_input36_X
*469 ANTENNA_input37_A
*470 ANTENNA_input37_X
*471 ANTENNA_input38_A
*472 ANTENNA_input38_X
*473 ANTENNA_input39_A
*474 ANTENNA_input39_X
*475 ANTENNA_input3_A
*476 ANTENNA_input3_X
*477 ANTENNA_input40_A
*478 ANTENNA_input40_X
*479 ANTENNA_input41_A
*480 ANTENNA_input41_X
*481 ANTENNA_input42_A
*482 ANTENNA_input42_X
*483 ANTENNA_input43_A
*484 ANTENNA_input43_X
*485 ANTENNA_input44_A
*486 ANTENNA_input44_X
*487 ANTENNA_input45_A
*488 ANTENNA_input45_X
*489 ANTENNA_input46_A
*490 ANTENNA_input46_X
*491 ANTENNA_input47_A
*492 ANTENNA_input47_X
*493 ANTENNA_input48_A
*494 ANTENNA_input48_X
*495 ANTENNA_input49_A
*496 ANTENNA_input49_X
*497 ANTENNA_input4_A
*498 ANTENNA_input4_X
*499 ANTENNA_input50_A
*500 ANTENNA_input50_X
*501 ANTENNA_input51_A
*502 ANTENNA_input51_X
*503 ANTENNA_input5_A
*504 ANTENNA_input5_X
*505 ANTENNA_input6_A
*506 ANTENNA_input6_X
*507 ANTENNA_input7_A
*508 ANTENNA_input7_X
*509 ANTENNA_input8_A
*510 ANTENNA_input8_X
*511 ANTENNA_input9_A
*512 ANTENNA_input9_X
*513 ANTENNA_load_slew100_X
*514 ANTENNA_load_slew103_X
*515 ANTENNA_load_slew105_X
*516 ANTENNA_load_slew85_X
*517 ANTENNA_load_slew87_X
*518 ANTENNA_load_slew91_X
*519 ANTENNA_load_slew93_X
*520 ANTENNA_load_slew96_X
*521 ANTENNA_load_slew97_X
*522 ANTENNA_load_slew98_X
*523 ANTENNA_load_slew99_X
*524 ANTENNA_mem_i0_addr0\[0\]
*525 ANTENNA_mem_i0_addr0\[1\]
*526 ANTENNA_mem_i0_addr0\[2\]
*527 ANTENNA_mem_i0_addr0\[3\]
*528 ANTENNA_mem_i0_addr0\[4\]
*529 ANTENNA_mem_i0_addr0\[5\]
*530 ANTENNA_mem_i0_addr0\[6\]
*531 ANTENNA_mem_i0_addr0\[7\]
*532 ANTENNA_mem_i0_addr1\[2\]
*533 ANTENNA_mem_i0_addr1\[3\]
*534 ANTENNA_mem_i0_addr1\[4\]
*535 ANTENNA_mem_i0_addr1\[5\]
*536 ANTENNA_mem_i0_addr1\[6\]
*537 ANTENNA_mem_i0_addr1\[7\]
*538 ANTENNA_mem_i0_clk0
*539 ANTENNA_mem_i0_clk1
*540 ANTENNA_mem_i0_csb0
*541 ANTENNA_mem_i0_din0\[0\]
*542 ANTENNA_mem_i0_din0\[1\]
*543 ANTENNA_mem_i0_din0\[2\]
*544 ANTENNA_mem_i0_din0\[3\]
*545 ANTENNA_mem_i0_din0\[4\]
*546 ANTENNA_mem_i0_dout1\[0\]
*547 ANTENNA_mem_i0_dout1\[10\]
*548 ANTENNA_mem_i0_dout1\[11\]
*549 ANTENNA_mem_i0_dout1\[12\]
*550 ANTENNA_mem_i0_dout1\[13\]
*551 ANTENNA_mem_i0_dout1\[14\]
*552 ANTENNA_mem_i0_dout1\[15\]
*553 ANTENNA_mem_i0_dout1\[1\]
*554 ANTENNA_mem_i0_dout1\[2\]
*555 ANTENNA_mem_i0_dout1\[3\]
*556 ANTENNA_mem_i0_dout1\[4\]
*557 ANTENNA_mem_i0_dout1\[5\]
*558 ANTENNA_mem_i0_dout1\[6\]
*559 ANTENNA_mem_i0_dout1\[7\]
*560 ANTENNA_mem_i0_dout1\[8\]
*561 ANTENNA_mem_i0_dout1\[9\]
*562 ANTENNA_mem_i1_addr0\[0\]
*563 ANTENNA_mem_i1_addr0\[1\]
*564 ANTENNA_mem_i1_addr1\[0\]
*565 ANTENNA_mem_i1_addr1\[1\]
*566 ANTENNA_mem_i1_addr1\[2\]
*567 ANTENNA_mem_i1_addr1\[3\]
*568 ANTENNA_mem_i1_addr1\[4\]
*569 ANTENNA_mem_i1_clk0
*570 ANTENNA_mem_i1_clk1
*571 ANTENNA_mem_i1_din0\[0\]
*572 ANTENNA_mem_i1_din0\[10\]
*573 ANTENNA_mem_i1_din0\[11\]
*574 ANTENNA_mem_i1_din0\[12\]
*575 ANTENNA_mem_i1_din0\[13\]
*576 ANTENNA_mem_i1_din0\[14\]
*577 ANTENNA_mem_i1_din0\[15\]
*578 ANTENNA_mem_i1_din0\[1\]
*579 ANTENNA_mem_i1_din0\[2\]
*580 ANTENNA_mem_i1_din0\[3\]
*581 ANTENNA_mem_i1_din0\[4\]
*582 ANTENNA_mem_i1_din0\[5\]
*583 ANTENNA_mem_i1_din0\[6\]
*584 ANTENNA_mem_i1_din0\[7\]
*585 ANTENNA_mem_i1_din0\[8\]
*586 ANTENNA_mem_i1_din0\[9\]
*587 ANTENNA_mem_i1_dout1\[0\]
*588 ANTENNA_output52_A
*589 ANTENNA_output53_A
*590 ANTENNA_output54_A
*591 ANTENNA_output55_A
*592 ANTENNA_output56_A
*593 ANTENNA_output59_A
*594 ANTENNA_output60_A
*595 ANTENNA_output61_A
*596 ANTENNA_output62_A
*597 ANTENNA_output63_A
*598 ANTENNA_output64_A
*599 ANTENNA_output65_A
*600 ANTENNA_output66_A
*601 ANTENNA_output67_A
*602 ANTENNA_wire68_X
*603 ANTENNA_wire69_X
*604 ANTENNA_wire70_X
*605 ANTENNA_wire71_X
*606 ANTENNA_wire72_X
*607 ANTENNA_wire73_X
*608 ANTENNA_wire74_X
*609 ANTENNA_wire75_X
*610 ANTENNA_wire76_X
*611 ANTENNA_wire77_X
*612 ANTENNA_wire78_X
*613 ANTENNA_wire79_X
*614 ANTENNA_wire80_X
*615 ANTENNA_wire81_X
*616 ANTENNA_wire82_X
*617 FILLER_0_1005
*618 FILLER_0_1009
*619 FILLER_0_1021
*620 FILLER_0_1033
*621 FILLER_0_1037
*622 FILLER_0_1049
*623 FILLER_0_1061
*624 FILLER_0_1065
*625 FILLER_0_1077
*626 FILLER_0_1089
*627 FILLER_0_109
*628 FILLER_0_1093
*629 FILLER_0_1105
*630 FILLER_0_1117
*631 FILLER_0_1121
*632 FILLER_0_113
*633 FILLER_0_1133
*634 FILLER_0_1145
*635 FILLER_0_1149
*636 FILLER_0_1161
*637 FILLER_0_1167
*638 FILLER_0_125
*639 FILLER_0_137
*640 FILLER_0_141
*641 FILLER_0_15
*642 FILLER_0_153
*643 FILLER_0_165
*644 FILLER_0_169
*645 FILLER_0_181
*646 FILLER_0_193
*647 FILLER_0_197
*648 FILLER_0_209
*649 FILLER_0_221
*650 FILLER_0_225
*651 FILLER_0_237
*652 FILLER_0_249
*653 FILLER_0_253
*654 FILLER_0_265
*655 FILLER_0_27
*656 FILLER_0_277
*657 FILLER_0_281
*658 FILLER_0_29
*659 FILLER_0_293
*660 FILLER_0_3
*661 FILLER_0_305
*662 FILLER_0_309
*663 FILLER_0_321
*664 FILLER_0_329
*665 FILLER_0_335
*666 FILLER_0_337
*667 FILLER_0_343
*668 FILLER_0_349
*669 FILLER_0_357
*670 FILLER_0_363
*671 FILLER_0_365
*672 FILLER_0_371
*673 FILLER_0_377
*674 FILLER_0_384
*675 FILLER_0_398
*676 FILLER_0_406
*677 FILLER_0_41
*678 FILLER_0_412
*679 FILLER_0_426
*680 FILLER_0_434
*681 FILLER_0_440
*682 FILLER_0_447
*683 FILLER_0_449
*684 FILLER_0_455
*685 FILLER_0_461
*686 FILLER_0_473
*687 FILLER_0_477
*688 FILLER_0_489
*689 FILLER_0_501
*690 FILLER_0_505
*691 FILLER_0_517
*692 FILLER_0_529
*693 FILLER_0_53
*694 FILLER_0_533
*695 FILLER_0_545
*696 FILLER_0_557
*697 FILLER_0_561
*698 FILLER_0_57
*699 FILLER_0_573
*700 FILLER_0_585
*701 FILLER_0_589
*702 FILLER_0_601
*703 FILLER_0_613
*704 FILLER_0_617
*705 FILLER_0_629
*706 FILLER_0_641
*707 FILLER_0_645
*708 FILLER_0_657
*709 FILLER_0_669
*710 FILLER_0_673
*711 FILLER_0_685
*712 FILLER_0_69
*713 FILLER_0_697
*714 FILLER_0_701
*715 FILLER_0_713
*716 FILLER_0_725
*717 FILLER_0_729
*718 FILLER_0_741
*719 FILLER_0_753
*720 FILLER_0_757
*721 FILLER_0_769
*722 FILLER_0_781
*723 FILLER_0_785
*724 FILLER_0_797
*725 FILLER_0_809
*726 FILLER_0_81
*727 FILLER_0_813
*728 FILLER_0_825
*729 FILLER_0_837
*730 FILLER_0_841
*731 FILLER_0_85
*732 FILLER_0_853
*733 FILLER_0_865
*734 FILLER_0_869
*735 FILLER_0_881
*736 FILLER_0_893
*737 FILLER_0_897
*738 FILLER_0_909
*739 FILLER_0_921
*740 FILLER_0_925
*741 FILLER_0_937
*742 FILLER_0_949
*743 FILLER_0_953
*744 FILLER_0_965
*745 FILLER_0_97
*746 FILLER_0_977
*747 FILLER_0_981
*748 FILLER_0_993
*749 FILLER_100_1122
*750 FILLER_100_1134
*751 FILLER_100_1146
*752 FILLER_100_1148
*753 FILLER_100_1160
*754 FILLER_100_15
*755 FILLER_100_27
*756 FILLER_100_29
*757 FILLER_100_3
*758 FILLER_100_41
*759 FILLER_100_53
*760 FILLER_100_65
*761 FILLER_101_1122
*762 FILLER_101_1134
*763 FILLER_101_1146
*764 FILLER_101_1158
*765 FILLER_101_1166
*766 FILLER_101_15
*767 FILLER_101_27
*768 FILLER_101_3
*769 FILLER_101_39
*770 FILLER_101_51
*771 FILLER_101_55
*772 FILLER_101_57
*773 FILLER_101_69
*774 FILLER_102_1122
*775 FILLER_102_1134
*776 FILLER_102_1146
*777 FILLER_102_1148
*778 FILLER_102_1160
*779 FILLER_102_15
*780 FILLER_102_27
*781 FILLER_102_29
*782 FILLER_102_3
*783 FILLER_102_41
*784 FILLER_102_53
*785 FILLER_102_65
*786 FILLER_103_1122
*787 FILLER_103_1134
*788 FILLER_103_1146
*789 FILLER_103_1158
*790 FILLER_103_1166
*791 FILLER_103_15
*792 FILLER_103_27
*793 FILLER_103_3
*794 FILLER_103_39
*795 FILLER_103_51
*796 FILLER_103_55
*797 FILLER_103_57
*798 FILLER_103_69
*799 FILLER_104_1122
*800 FILLER_104_1134
*801 FILLER_104_1146
*802 FILLER_104_1148
*803 FILLER_104_1160
*804 FILLER_104_15
*805 FILLER_104_27
*806 FILLER_104_29
*807 FILLER_104_3
*808 FILLER_104_41
*809 FILLER_104_53
*810 FILLER_104_65
*811 FILLER_105_1122
*812 FILLER_105_1134
*813 FILLER_105_1146
*814 FILLER_105_1158
*815 FILLER_105_1166
*816 FILLER_105_15
*817 FILLER_105_27
*818 FILLER_105_3
*819 FILLER_105_39
*820 FILLER_105_51
*821 FILLER_105_55
*822 FILLER_106_1125
*823 FILLER_106_1137
*824 FILLER_106_1145
*825 FILLER_106_1148
*826 FILLER_106_1160
*827 FILLER_106_15
*828 FILLER_106_27
*829 FILLER_106_29
*830 FILLER_106_3
*831 FILLER_106_41
*832 FILLER_106_49
*833 FILLER_107_1122
*834 FILLER_107_1134
*835 FILLER_107_1146
*836 FILLER_107_1158
*837 FILLER_107_1166
*838 FILLER_107_15
*839 FILLER_107_27
*840 FILLER_107_3
*841 FILLER_107_39
*842 FILLER_107_51
*843 FILLER_107_55
*844 FILLER_107_57
*845 FILLER_107_65
*846 FILLER_108_1122
*847 FILLER_108_1134
*848 FILLER_108_1146
*849 FILLER_108_1148
*850 FILLER_108_1160
*851 FILLER_108_15
*852 FILLER_108_27
*853 FILLER_108_29
*854 FILLER_108_3
*855 FILLER_108_41
*856 FILLER_108_53
*857 FILLER_108_65
*858 FILLER_109_1122
*859 FILLER_109_1134
*860 FILLER_109_1146
*861 FILLER_109_1158
*862 FILLER_109_1166
*863 FILLER_109_15
*864 FILLER_109_27
*865 FILLER_109_3
*866 FILLER_109_39
*867 FILLER_109_51
*868 FILLER_109_55
*869 FILLER_109_57
*870 FILLER_109_69
*871 FILLER_10_1122
*872 FILLER_10_1134
*873 FILLER_10_1146
*874 FILLER_10_1148
*875 FILLER_10_1160
*876 FILLER_10_13
*877 FILLER_10_25
*878 FILLER_10_29
*879 FILLER_10_41
*880 FILLER_10_53
*881 FILLER_10_65
*882 FILLER_110_1122
*883 FILLER_110_1134
*884 FILLER_110_1146
*885 FILLER_110_1148
*886 FILLER_110_1160
*887 FILLER_110_15
*888 FILLER_110_27
*889 FILLER_110_29
*890 FILLER_110_3
*891 FILLER_110_41
*892 FILLER_110_53
*893 FILLER_110_65
*894 FILLER_111_1122
*895 FILLER_111_1134
*896 FILLER_111_1146
*897 FILLER_111_1158
*898 FILLER_111_1166
*899 FILLER_111_15
*900 FILLER_111_27
*901 FILLER_111_3
*902 FILLER_111_39
*903 FILLER_111_51
*904 FILLER_111_55
*905 FILLER_111_57
*906 FILLER_111_69
*907 FILLER_112_1122
*908 FILLER_112_1134
*909 FILLER_112_1146
*910 FILLER_112_1148
*911 FILLER_112_1160
*912 FILLER_112_15
*913 FILLER_112_27
*914 FILLER_112_29
*915 FILLER_112_3
*916 FILLER_112_41
*917 FILLER_112_53
*918 FILLER_112_65
*919 FILLER_113_1122
*920 FILLER_113_1134
*921 FILLER_113_1146
*922 FILLER_113_1158
*923 FILLER_113_1166
*924 FILLER_113_15
*925 FILLER_113_27
*926 FILLER_113_3
*927 FILLER_113_39
*928 FILLER_113_51
*929 FILLER_113_55
*930 FILLER_113_57
*931 FILLER_113_69
*932 FILLER_114_1122
*933 FILLER_114_1134
*934 FILLER_114_1146
*935 FILLER_114_1148
*936 FILLER_114_1160
*937 FILLER_114_15
*938 FILLER_114_27
*939 FILLER_114_29
*940 FILLER_114_3
*941 FILLER_114_41
*942 FILLER_114_53
*943 FILLER_114_65
*944 FILLER_115_1122
*945 FILLER_115_1134
*946 FILLER_115_1146
*947 FILLER_115_1158
*948 FILLER_115_1166
*949 FILLER_115_15
*950 FILLER_115_27
*951 FILLER_115_3
*952 FILLER_115_39
*953 FILLER_115_51
*954 FILLER_115_55
*955 FILLER_115_57
*956 FILLER_115_69
*957 FILLER_116_1122
*958 FILLER_116_1134
*959 FILLER_116_1146
*960 FILLER_116_1148
*961 FILLER_116_1160
*962 FILLER_116_15
*963 FILLER_116_27
*964 FILLER_116_29
*965 FILLER_116_3
*966 FILLER_116_41
*967 FILLER_116_53
*968 FILLER_116_65
*969 FILLER_117_1007
*970 FILLER_117_1009
*971 FILLER_117_1039
*972 FILLER_117_1051
*973 FILLER_117_1063
*974 FILLER_117_1065
*975 FILLER_117_1077
*976 FILLER_117_1089
*977 FILLER_117_109
*978 FILLER_117_1093
*979 FILLER_117_1105
*980 FILLER_117_1117
*981 FILLER_117_1121
*982 FILLER_117_113
*983 FILLER_117_1133
*984 FILLER_117_1145
*985 FILLER_117_1149
*986 FILLER_117_1161
*987 FILLER_117_1167
*988 FILLER_117_125
*989 FILLER_117_137
*990 FILLER_117_141
*991 FILLER_117_15
*992 FILLER_117_153
*993 FILLER_117_165
*994 FILLER_117_169
*995 FILLER_117_181
*996 FILLER_117_193
*997 FILLER_117_197
*998 FILLER_117_209
*999 FILLER_117_221
*1000 FILLER_117_225
*1001 FILLER_117_237
*1002 FILLER_117_249
*1003 FILLER_117_253
*1004 FILLER_117_265
*1005 FILLER_117_27
*1006 FILLER_117_277
*1007 FILLER_117_281
*1008 FILLER_117_29
*1009 FILLER_117_293
*1010 FILLER_117_3
*1011 FILLER_117_305
*1012 FILLER_117_309
*1013 FILLER_117_321
*1014 FILLER_117_333
*1015 FILLER_117_337
*1016 FILLER_117_349
*1017 FILLER_117_361
*1018 FILLER_117_365
*1019 FILLER_117_377
*1020 FILLER_117_382
*1021 FILLER_117_390
*1022 FILLER_117_393
*1023 FILLER_117_405
*1024 FILLER_117_41
*1025 FILLER_117_410
*1026 FILLER_117_418
*1027 FILLER_117_421
*1028 FILLER_117_433
*1029 FILLER_117_437
*1030 FILLER_117_445
*1031 FILLER_117_449
*1032 FILLER_117_461
*1033 FILLER_117_464
*1034 FILLER_117_477
*1035 FILLER_117_491
*1036 FILLER_117_503
*1037 FILLER_117_505
*1038 FILLER_117_513
*1039 FILLER_117_518
*1040 FILLER_117_53
*1041 FILLER_117_530
*1042 FILLER_117_533
*1043 FILLER_117_541
*1044 FILLER_117_545
*1045 FILLER_117_557
*1046 FILLER_117_561
*1047 FILLER_117_569
*1048 FILLER_117_57
*1049 FILLER_117_572
*1050 FILLER_117_584
*1051 FILLER_117_589
*1052 FILLER_117_597
*1053 FILLER_117_600
*1054 FILLER_117_612
*1055 FILLER_117_617
*1056 FILLER_117_627
*1057 FILLER_117_639
*1058 FILLER_117_643
*1059 FILLER_117_645
*1060 FILLER_117_651
*1061 FILLER_117_654
*1062 FILLER_117_666
*1063 FILLER_117_673
*1064 FILLER_117_681
*1065 FILLER_117_69
*1066 FILLER_117_693
*1067 FILLER_117_699
*1068 FILLER_117_701
*1069 FILLER_117_705
*1070 FILLER_117_708
*1071 FILLER_117_720
*1072 FILLER_117_729
*1073 FILLER_117_735
*1074 FILLER_117_747
*1075 FILLER_117_755
*1076 FILLER_117_757
*1077 FILLER_117_762
*1078 FILLER_117_774
*1079 FILLER_117_782
*1080 FILLER_117_785
*1081 FILLER_117_789
*1082 FILLER_117_801
*1083 FILLER_117_809
*1084 FILLER_117_81
*1085 FILLER_117_813
*1086 FILLER_117_825
*1087 FILLER_117_837
*1088 FILLER_117_841
*1089 FILLER_117_85
*1090 FILLER_117_853
*1091 FILLER_117_865
*1092 FILLER_117_869
*1093 FILLER_117_881
*1094 FILLER_117_893
*1095 FILLER_117_897
*1096 FILLER_117_909
*1097 FILLER_117_913
*1098 FILLER_117_920
*1099 FILLER_117_97
*1100 FILLER_117_995
*1101 FILLER_118_1004
*1102 FILLER_118_1016
*1103 FILLER_118_1028
*1104 FILLER_118_1037
*1105 FILLER_118_1049
*1106 FILLER_118_1061
*1107 FILLER_118_1073
*1108 FILLER_118_1085
*1109 FILLER_118_109
*1110 FILLER_118_1091
*1111 FILLER_118_1093
*1112 FILLER_118_1105
*1113 FILLER_118_1117
*1114 FILLER_118_1129
*1115 FILLER_118_1141
*1116 FILLER_118_1147
*1117 FILLER_118_1149
*1118 FILLER_118_1161
*1119 FILLER_118_1167
*1120 FILLER_118_121
*1121 FILLER_118_133
*1122 FILLER_118_139
*1123 FILLER_118_141
*1124 FILLER_118_15
*1125 FILLER_118_153
*1126 FILLER_118_165
*1127 FILLER_118_177
*1128 FILLER_118_189
*1129 FILLER_118_195
*1130 FILLER_118_197
*1131 FILLER_118_209
*1132 FILLER_118_221
*1133 FILLER_118_233
*1134 FILLER_118_245
*1135 FILLER_118_251
*1136 FILLER_118_253
*1137 FILLER_118_265
*1138 FILLER_118_27
*1139 FILLER_118_277
*1140 FILLER_118_289
*1141 FILLER_118_29
*1142 FILLER_118_3
*1143 FILLER_118_301
*1144 FILLER_118_307
*1145 FILLER_118_309
*1146 FILLER_118_321
*1147 FILLER_118_333
*1148 FILLER_118_345
*1149 FILLER_118_357
*1150 FILLER_118_363
*1151 FILLER_118_365
*1152 FILLER_118_377
*1153 FILLER_118_389
*1154 FILLER_118_401
*1155 FILLER_118_41
*1156 FILLER_118_413
*1157 FILLER_118_419
*1158 FILLER_118_421
*1159 FILLER_118_433
*1160 FILLER_118_445
*1161 FILLER_118_457
*1162 FILLER_118_469
*1163 FILLER_118_475
*1164 FILLER_118_477
*1165 FILLER_118_489
*1166 FILLER_118_501
*1167 FILLER_118_513
*1168 FILLER_118_525
*1169 FILLER_118_53
*1170 FILLER_118_531
*1171 FILLER_118_533
*1172 FILLER_118_545
*1173 FILLER_118_557
*1174 FILLER_118_569
*1175 FILLER_118_581
*1176 FILLER_118_587
*1177 FILLER_118_589
*1178 FILLER_118_601
*1179 FILLER_118_613
*1180 FILLER_118_625
*1181 FILLER_118_637
*1182 FILLER_118_643
*1183 FILLER_118_645
*1184 FILLER_118_65
*1185 FILLER_118_657
*1186 FILLER_118_669
*1187 FILLER_118_681
*1188 FILLER_118_693
*1189 FILLER_118_699
*1190 FILLER_118_701
*1191 FILLER_118_713
*1192 FILLER_118_725
*1193 FILLER_118_737
*1194 FILLER_118_749
*1195 FILLER_118_755
*1196 FILLER_118_757
*1197 FILLER_118_769
*1198 FILLER_118_77
*1199 FILLER_118_781
*1200 FILLER_118_793
*1201 FILLER_118_805
*1202 FILLER_118_811
*1203 FILLER_118_813
*1204 FILLER_118_825
*1205 FILLER_118_83
*1206 FILLER_118_837
*1207 FILLER_118_849
*1208 FILLER_118_85
*1209 FILLER_118_861
*1210 FILLER_118_867
*1211 FILLER_118_869
*1212 FILLER_118_881
*1213 FILLER_118_893
*1214 FILLER_118_921
*1215 FILLER_118_925
*1216 FILLER_118_933
*1217 FILLER_118_97
*1218 FILLER_118_992
*1219 FILLER_119_1000
*1220 FILLER_119_1009
*1221 FILLER_119_1021
*1222 FILLER_119_1033
*1223 FILLER_119_1045
*1224 FILLER_119_105
*1225 FILLER_119_1057
*1226 FILLER_119_1063
*1227 FILLER_119_1065
*1228 FILLER_119_1077
*1229 FILLER_119_1089
*1230 FILLER_119_1101
*1231 FILLER_119_111
*1232 FILLER_119_1113
*1233 FILLER_119_1119
*1234 FILLER_119_1121
*1235 FILLER_119_113
*1236 FILLER_119_1133
*1237 FILLER_119_1145
*1238 FILLER_119_1157
*1239 FILLER_119_1165
*1240 FILLER_119_125
*1241 FILLER_119_137
*1242 FILLER_119_149
*1243 FILLER_119_15
*1244 FILLER_119_161
*1245 FILLER_119_167
*1246 FILLER_119_169
*1247 FILLER_119_181
*1248 FILLER_119_193
*1249 FILLER_119_205
*1250 FILLER_119_217
*1251 FILLER_119_223
*1252 FILLER_119_225
*1253 FILLER_119_237
*1254 FILLER_119_249
*1255 FILLER_119_261
*1256 FILLER_119_27
*1257 FILLER_119_273
*1258 FILLER_119_279
*1259 FILLER_119_281
*1260 FILLER_119_293
*1261 FILLER_119_3
*1262 FILLER_119_305
*1263 FILLER_119_317
*1264 FILLER_119_329
*1265 FILLER_119_335
*1266 FILLER_119_337
*1267 FILLER_119_349
*1268 FILLER_119_361
*1269 FILLER_119_373
*1270 FILLER_119_385
*1271 FILLER_119_39
*1272 FILLER_119_391
*1273 FILLER_119_393
*1274 FILLER_119_405
*1275 FILLER_119_417
*1276 FILLER_119_429
*1277 FILLER_119_441
*1278 FILLER_119_447
*1279 FILLER_119_449
*1280 FILLER_119_461
*1281 FILLER_119_473
*1282 FILLER_119_485
*1283 FILLER_119_497
*1284 FILLER_119_503
*1285 FILLER_119_505
*1286 FILLER_119_51
*1287 FILLER_119_517
*1288 FILLER_119_529
*1289 FILLER_119_541
*1290 FILLER_119_55
*1291 FILLER_119_553
*1292 FILLER_119_559
*1293 FILLER_119_561
*1294 FILLER_119_57
*1295 FILLER_119_573
*1296 FILLER_119_585
*1297 FILLER_119_597
*1298 FILLER_119_609
*1299 FILLER_119_615
*1300 FILLER_119_617
*1301 FILLER_119_629
*1302 FILLER_119_641
*1303 FILLER_119_653
*1304 FILLER_119_665
*1305 FILLER_119_671
*1306 FILLER_119_673
*1307 FILLER_119_685
*1308 FILLER_119_69
*1309 FILLER_119_697
*1310 FILLER_119_709
*1311 FILLER_119_721
*1312 FILLER_119_727
*1313 FILLER_119_729
*1314 FILLER_119_741
*1315 FILLER_119_753
*1316 FILLER_119_765
*1317 FILLER_119_777
*1318 FILLER_119_783
*1319 FILLER_119_785
*1320 FILLER_119_797
*1321 FILLER_119_809
*1322 FILLER_119_81
*1323 FILLER_119_821
*1324 FILLER_119_833
*1325 FILLER_119_839
*1326 FILLER_119_841
*1327 FILLER_119_853
*1328 FILLER_119_865
*1329 FILLER_119_877
*1330 FILLER_119_889
*1331 FILLER_119_895
*1332 FILLER_119_897
*1333 FILLER_119_901
*1334 FILLER_119_908
*1335 FILLER_119_920
*1336 FILLER_119_928
*1337 FILLER_119_93
*1338 FILLER_119_961
*1339 FILLER_119_988
*1340 FILLER_11_1122
*1341 FILLER_11_1134
*1342 FILLER_11_1146
*1343 FILLER_11_1158
*1344 FILLER_11_1166
*1345 FILLER_11_15
*1346 FILLER_11_27
*1347 FILLER_11_39
*1348 FILLER_11_51
*1349 FILLER_11_55
*1350 FILLER_11_57
*1351 FILLER_11_69
*1352 FILLER_120_1010
*1353 FILLER_120_1022
*1354 FILLER_120_1034
*1355 FILLER_120_1037
*1356 FILLER_120_1049
*1357 FILLER_120_1061
*1358 FILLER_120_1073
*1359 FILLER_120_1085
*1360 FILLER_120_109
*1361 FILLER_120_1091
*1362 FILLER_120_1093
*1363 FILLER_120_1105
*1364 FILLER_120_1117
*1365 FILLER_120_1129
*1366 FILLER_120_1141
*1367 FILLER_120_1147
*1368 FILLER_120_1149
*1369 FILLER_120_121
*1370 FILLER_120_133
*1371 FILLER_120_139
*1372 FILLER_120_141
*1373 FILLER_120_15
*1374 FILLER_120_153
*1375 FILLER_120_165
*1376 FILLER_120_177
*1377 FILLER_120_189
*1378 FILLER_120_195
*1379 FILLER_120_197
*1380 FILLER_120_209
*1381 FILLER_120_221
*1382 FILLER_120_233
*1383 FILLER_120_245
*1384 FILLER_120_251
*1385 FILLER_120_253
*1386 FILLER_120_265
*1387 FILLER_120_27
*1388 FILLER_120_277
*1389 FILLER_120_289
*1390 FILLER_120_29
*1391 FILLER_120_3
*1392 FILLER_120_301
*1393 FILLER_120_307
*1394 FILLER_120_309
*1395 FILLER_120_321
*1396 FILLER_120_333
*1397 FILLER_120_345
*1398 FILLER_120_357
*1399 FILLER_120_363
*1400 FILLER_120_365
*1401 FILLER_120_377
*1402 FILLER_120_389
*1403 FILLER_120_401
*1404 FILLER_120_41
*1405 FILLER_120_413
*1406 FILLER_120_419
*1407 FILLER_120_421
*1408 FILLER_120_433
*1409 FILLER_120_445
*1410 FILLER_120_457
*1411 FILLER_120_469
*1412 FILLER_120_475
*1413 FILLER_120_477
*1414 FILLER_120_489
*1415 FILLER_120_501
*1416 FILLER_120_513
*1417 FILLER_120_525
*1418 FILLER_120_53
*1419 FILLER_120_531
*1420 FILLER_120_533
*1421 FILLER_120_545
*1422 FILLER_120_557
*1423 FILLER_120_569
*1424 FILLER_120_581
*1425 FILLER_120_587
*1426 FILLER_120_589
*1427 FILLER_120_601
*1428 FILLER_120_613
*1429 FILLER_120_625
*1430 FILLER_120_637
*1431 FILLER_120_643
*1432 FILLER_120_645
*1433 FILLER_120_65
*1434 FILLER_120_657
*1435 FILLER_120_669
*1436 FILLER_120_681
*1437 FILLER_120_693
*1438 FILLER_120_699
*1439 FILLER_120_701
*1440 FILLER_120_713
*1441 FILLER_120_725
*1442 FILLER_120_737
*1443 FILLER_120_749
*1444 FILLER_120_755
*1445 FILLER_120_757
*1446 FILLER_120_769
*1447 FILLER_120_77
*1448 FILLER_120_781
*1449 FILLER_120_793
*1450 FILLER_120_805
*1451 FILLER_120_811
*1452 FILLER_120_813
*1453 FILLER_120_825
*1454 FILLER_120_83
*1455 FILLER_120_837
*1456 FILLER_120_849
*1457 FILLER_120_85
*1458 FILLER_120_861
*1459 FILLER_120_867
*1460 FILLER_120_869
*1461 FILLER_120_881
*1462 FILLER_120_893
*1463 FILLER_120_905
*1464 FILLER_120_917
*1465 FILLER_120_923
*1466 FILLER_120_928
*1467 FILLER_120_940
*1468 FILLER_120_97
*1469 FILLER_120_979
*1470 FILLER_120_981
*1471 FILLER_120_989
*1472 FILLER_120_998
*1473 FILLER_121_1005
*1474 FILLER_121_1009
*1475 FILLER_121_1021
*1476 FILLER_121_1033
*1477 FILLER_121_1045
*1478 FILLER_121_105
*1479 FILLER_121_1057
*1480 FILLER_121_1063
*1481 FILLER_121_1065
*1482 FILLER_121_1077
*1483 FILLER_121_1089
*1484 FILLER_121_1101
*1485 FILLER_121_111
*1486 FILLER_121_1113
*1487 FILLER_121_1119
*1488 FILLER_121_1121
*1489 FILLER_121_113
*1490 FILLER_121_1133
*1491 FILLER_121_1145
*1492 FILLER_121_1157
*1493 FILLER_121_1165
*1494 FILLER_121_125
*1495 FILLER_121_137
*1496 FILLER_121_149
*1497 FILLER_121_15
*1498 FILLER_121_161