*SPEF "ieee 1481-1999"
*DESIGN "counter"
*DATE "07:14:06 Wednesday February 26, 2025"
*VENDOR "The OpenROAD Project"
*PROGRAM "OpenROAD"
*VERSION "edf00dff99f6c40d67a30c0e22a8191c5d2ed9d6"
*DESIGN_FLOW "NAME_SCOPE LOCAL" "PIN_CAP NONE"
*DIVIDER /
*DELIMITER :
*BUS_DELIMITER []
*T_UNIT 1 NS
*C_UNIT 1 PF
*R_UNIT 1 OHM
*L_UNIT 1 HENRY

*NAME_MAP
*1 addr0[0]
*2 addr0[1]
*3 addr0[2]
*4 addr0[3]
*5 addr0[4]
*6 addr0[5]
*7 addr0[6]
*8 addr0[7]
*9 clk
*10 csb0
*11 din0[0]
*12 din0[10]
*13 din0[11]
*14 din0[12]
*15 din0[13]
*16 din0[14]
*17 din0[15]
*18 din0[1]
*19 din0[2]
*20 din0[3]
*21 din0[4]
*22 din0[5]
*23 din0[6]
*24 din0[7]
*25 din0[8]
*26 din0[9]
*27 rst
*28 sine_out[0]
*29 sine_out[10]
*30 sine_out[11]
*31 sine_out[12]
*32 sine_out[13]
*33 sine_out[14]
*34 sine_out[15]
*35 sine_out[1]
*36 sine_out[2]
*37 sine_out[3]
*38 sine_out[4]
*39 sine_out[5]
*40 sine_out[6]
*41 sine_out[7]
*42 sine_out[8]
*43 sine_out[9]
*46 _000_
*47 _001_
*48 _002_
*49 _003_
*50 _004_
*51 _005_
*52 _006_
*53 _007_
*54 _008_
*55 _009_
*56 _010_
*57 _011_
*58 _012_
*59 _013_
*60 _014_
*61 _015_
*62 _016_
*63 _017_
*64 _018_
*65 _019_
*66 _020_
*67 _021_
*68 _022_
*69 _023_
*70 _024_
*71 _025_
*72 _026_
*73 _027_
*74 _028_
*75 _029_
*76 _030_
*77 _031_
*78 _032_
*79 _033_
*80 _034_
*81 _035_
*82 _036_
*83 _037_
*84 _038_
*85 clknet_0_clk
*86 clknet_1_0__leaf_clk
*87 clknet_1_1__leaf_clk
*88 net1
*89 net10
*90 net11
*91 net12
*92 net13
*93 net14
*94 net15
*95 net16
*96 net17
*97 net18
*98 net19
*99 net2
*100 net20
*101 net21
*102 net22
*103 net23
*104 net24
*105 net25
*106 net26
*107 net27
*108 net28
*109 net29
*110 net3
*111 net30
*112 net31
*113 net32
*114 net33
*115 net34
*116 net35
*117 net36
*118 net37
*119 net38
*120 net39
*121 net4
*122 net40
*123 net41
*124 net42
*125 net43
*126 net44
*127 net45
*128 net46
*129 net47
*130 net48
*131 net49
*132 net5
*133 net50
*134 net51
*135 net52
*136 net53
*137 net54
*138 net55
*139 net56
*140 net57
*141 net58
*142 net59
*143 net6
*144 net60
*145 net61
*146 net62
*147 net63
*148 net64
*149 net65
*150 net66
*151 net7
*152 net8
*153 net9
*154 sine_out_temp\[0\]
*155 sine_out_temp\[10\]
*156 sine_out_temp\[11\]
*157 sine_out_temp\[12\]
*158 sine_out_temp\[13\]
*159 sine_out_temp\[14\]
*160 sine_out_temp\[15\]
*161 sine_out_temp\[1\]
*162 sine_out_temp\[2\]
*163 sine_out_temp\[3\]
*164 sine_out_temp\[4\]
*165 sine_out_temp\[5\]
*166 sine_out_temp\[6\]
*167 sine_out_temp\[7\]
*168 sine_out_temp\[8\]
*169 sine_out_temp\[9\]
*170 tcout\[0\]
*171 tcout\[1\]
*172 tcout\[2\]
*173 tcout\[3\]
*174 tcout\[4\]
*175 tcout\[5\]
*176 tcout\[6\]
*177 tcout\[7\]
*178 ANTENNA_1
*179 ANTENNA_2
*180 ANTENNA_3
*181 ANTENNA_4
*182 ANTENNA__043__X
*183 ANTENNA__045__A
*184 ANTENNA__046__B
*185 ANTENNA__047__B
*186 ANTENNA__048__C
*187 ANTENNA__051__A1_N
*188 ANTENNA__052__B
*189 ANTENNA__053__A1
*190 ANTENNA__068__A
*191 ANTENNA__068__Y
*192 ANTENNA__069__A
*193 ANTENNA__070__A
*194 ANTENNA__071__A
*195 ANTENNA__072__A
*196 ANTENNA__073__A
*197 ANTENNA__074__A
*198 ANTENNA__075__A
*199 ANTENNA__079__CLK
*200 ANTENNA__080__CLK
*201 ANTENNA__081__CLK
*202 ANTENNA__082__CLK
*203 ANTENNA__083__CLK
*204 ANTENNA__084__CLK
*205 ANTENNA__085__CLK
*206 ANTENNA__086__CLK
*207 ANTENNA__087__CLK
*208 ANTENNA__088__CLK
*209 ANTENNA__089__CLK
*210 ANTENNA__090__CLK
*211 ANTENNA__091__CLK
*212 ANTENNA__092__CLK
*213 ANTENNA__092__RESET_B
*214 ANTENNA__093__CLK
*215 ANTENNA__094__CLK
*216 ANTENNA__095__CLK
*217 ANTENNA__096__CLK
*218 ANTENNA__097__CLK
*219 ANTENNA__098__CLK
*220 ANTENNA__099__CLK
*221 ANTENNA__100__CLK
*222 ANTENNA__101__CLK
*223 ANTENNA__102__CLK
*224 ANTENNA_clkbuf_0_clk_A
*225 ANTENNA_clkbuf_0_clk_X
*226 ANTENNA_clkbuf_1_0__f_clk_A
*227 ANTENNA_clkbuf_1_0__f_clk_X
*228 ANTENNA_clkbuf_1_1__f_clk_A
*229 ANTENNA_clkbuf_1_1__f_clk_X
*230 ANTENNA_clkload0_A
*231 ANTENNA_fanout54_A
*232 ANTENNA_fanout55_A
*233 ANTENNA_fanout56_X
*234 ANTENNA_input10_A
*235 ANTENNA_input11_A
*236 ANTENNA_input12_A
*237 ANTENNA_input13_A
*238 ANTENNA_input14_A
*239 ANTENNA_input15_A
*240 ANTENNA_input16_A
*241 ANTENNA_input17_A
*242 ANTENNA_input18_A
*243 ANTENNA_input19_A
*244 ANTENNA_input1_A
*245 ANTENNA_input20_A
*246 ANTENNA_input21_A
*247 ANTENNA_input22_A
*248 ANTENNA_input23_A
*249 ANTENNA_input24_A
*250 ANTENNA_input25_A
*251 ANTENNA_input26_A
*252 ANTENNA_input2_A
*253 ANTENNA_input3_A
*254 ANTENNA_input4_A
*255 ANTENNA_input5_A
*256 ANTENNA_input6_A
*257 ANTENNA_input7_A
*258 ANTENNA_input8_A
*259 ANTENNA_input9_A
*260 ANTENNA_load_slew43_X
*261 ANTENNA_load_slew44_X
*262 ANTENNA_load_slew45_X
*263 ANTENNA_load_slew51_X
*264 ANTENNA_load_slew52_X
*265 ANTENNA_load_slew53_X
*266 ANTENNA_mem_i_addr1\[0\]
*267 ANTENNA_mem_i_addr1\[1\]
*268 ANTENNA_mem_i_addr1\[2\]
*269 ANTENNA_mem_i_addr1\[5\]
*270 ANTENNA_mem_i_addr1\[6\]
*271 ANTENNA_mem_i_addr1\[7\]
*272 ANTENNA_mem_i_clk0
*273 ANTENNA_mem_i_clk1
*274 FILLER_0_1005
*275 FILLER_0_1009
*276 FILLER_0_1021
*277 FILLER_0_1033
*278 FILLER_0_1037
*279 FILLER_0_1049
*280 FILLER_0_1061
*281 FILLER_0_1065
*282 FILLER_0_1077
*283 FILLER_0_1089
*284 FILLER_0_109
*285 FILLER_0_1093
*286 FILLER_0_1105
*287 FILLER_0_1117
*288 FILLER_0_1121
*289 FILLER_0_113
*290 FILLER_0_1133
*291 FILLER_0_1145
*292 FILLER_0_1149
*293 FILLER_0_1161
*294 FILLER_0_1173
*295 FILLER_0_1177
*296 FILLER_0_1189
*297 FILLER_0_125
*298 FILLER_0_137
*299 FILLER_0_141
*300 FILLER_0_15
*301 FILLER_0_153
*302 FILLER_0_165
*303 FILLER_0_169
*304 FILLER_0_181
*305 FILLER_0_193
*306 FILLER_0_197
*307 FILLER_0_209
*308 FILLER_0_221
*309 FILLER_0_225
*310 FILLER_0_237
*311 FILLER_0_244
*312 FILLER_0_258
*313 FILLER_0_266
*314 FILLER_0_27
*315 FILLER_0_272
*316 FILLER_0_286
*317 FILLER_0_29
*318 FILLER_0_294
*319 FILLER_0_3
*320 FILLER_0_300
*321 FILLER_0_307
*322 FILLER_0_309
*323 FILLER_0_315
*324 FILLER_0_321
*325 FILLER_0_329
*326 FILLER_0_335
*327 FILLER_0_337
*328 FILLER_0_343
*329 FILLER_0_349
*330 FILLER_0_357
*331 FILLER_0_363
*332 FILLER_0_365
*333 FILLER_0_371
*334 FILLER_0_377
*335 FILLER_0_384
*336 FILLER_0_398
*337 FILLER_0_406
*338 FILLER_0_41
*339 FILLER_0_412
*340 FILLER_0_426
*341 FILLER_0_434
*342 FILLER_0_440
*343 FILLER_0_447
*344 FILLER_0_449
*345 FILLER_0_455
*346 FILLER_0_461
*347 FILLER_0_473
*348 FILLER_0_477
*349 FILLER_0_489
*350 FILLER_0_501
*351 FILLER_0_505
*352 FILLER_0_517
*353 FILLER_0_529
*354 FILLER_0_53
*355 FILLER_0_533
*356 FILLER_0_545
*357 FILLER_0_557
*358 FILLER_0_561
*359 FILLER_0_57
*360 FILLER_0_573
*361 FILLER_0_585
*362 FILLER_0_589
*363 FILLER_0_601
*364 FILLER_0_613
*365 FILLER_0_617
*366 FILLER_0_629
*367 FILLER_0_641
*368 FILLER_0_645
*369 FILLER_0_657
*370 FILLER_0_669
*371 FILLER_0_673
*372 FILLER_0_685
*373 FILLER_0_69
*374 FILLER_0_697
*375 FILLER_0_701
*376 FILLER_0_713
*377 FILLER_0_725
*378 FILLER_0_729
*379 FILLER_0_741
*380 FILLER_0_753
*381 FILLER_0_757
*382 FILLER_0_769
*383 FILLER_0_781
*384 FILLER_0_785
*385 FILLER_0_797
*386 FILLER_0_809
*387 FILLER_0_81
*388 FILLER_0_813
*389 FILLER_0_825
*390 FILLER_0_837
*391 FILLER_0_841
*392 FILLER_0_85
*393 FILLER_0_853
*394 FILLER_0_865
*395 FILLER_0_869
*396 FILLER_0_881
*397 FILLER_0_893
*398 FILLER_0_897
*399 FILLER_0_909
*400 FILLER_0_921
*401 FILLER_0_925
*402 FILLER_0_937
*403 FILLER_0_949
*404 FILLER_0_953
*405 FILLER_0_965
*406 FILLER_0_97
*407 FILLER_0_977
*408 FILLER_0_981
*409 FILLER_0_993
*410 FILLER_100_1148
*411 FILLER_100_1160
*412 FILLER_100_1172
*413 FILLER_100_1184
*414 FILLER_100_15
*415 FILLER_100_27
*416 FILLER_100_29
*417 FILLER_100_3
*418 FILLER_100_41
*419 FILLER_100_53
*420 FILLER_100_65
*421 FILLER_101_1130
*422 FILLER_101_1142
*423 FILLER_101_1154
*424 FILLER_101_1166
*425 FILLER_101_1174
*426 FILLER_101_1176
*427 FILLER_101_1188
*428 FILLER_101_15
*429 FILLER_101_27
*430 FILLER_101_3
*431 FILLER_101_39
*432 FILLER_101_51
*433 FILLER_101_55
*434 FILLER_101_57
*435 FILLER_101_69
*436 FILLER_102_1122
*437 FILLER_102_1134
*438 FILLER_102_1146
*439 FILLER_102_1148
*440 FILLER_102_1160
*441 FILLER_102_1172
*442 FILLER_102_1184
*443 FILLER_102_15
*444 FILLER_102_27
*445 FILLER_102_29
*446 FILLER_102_3
*447 FILLER_102_41
*448 FILLER_102_53
*449 FILLER_102_65
*450 FILLER_103_1122
*451 FILLER_103_1134
*452 FILLER_103_1146
*453 FILLER_103_1158
*454 FILLER_103_1170
*455 FILLER_103_1174
*456 FILLER_103_1176
*457 FILLER_103_1188
*458 FILLER_103_15
*459 FILLER_103_27
*460 FILLER_103_3
*461 FILLER_103_39
*462 FILLER_103_51
*463 FILLER_103_55
*464 FILLER_103_57
*465 FILLER_103_69
*466 FILLER_104_1122
*467 FILLER_104_1134
*468 FILLER_104_1146
*469 FILLER_104_1148
*470 FILLER_104_1160
*471 FILLER_104_1172
*472 FILLER_104_1184
*473 FILLER_104_15
*474 FILLER_104_27
*475 FILLER_104_29
*476 FILLER_104_3
*477 FILLER_104_41
*478 FILLER_104_53
*479 FILLER_104_65
*480 FILLER_105_1122
*481 FILLER_105_1134
*482 FILLER_105_1146
*483 FILLER_105_1158
*484 FILLER_105_1170
*485 FILLER_105_1174
*486 FILLER_105_1176
*487 FILLER_105_1188
*488 FILLER_105_15
*489 FILLER_105_27
*490 FILLER_105_3
*491 FILLER_105_39
*492 FILLER_105_51
*493 FILLER_105_55
*494 FILLER_105_57
*495 FILLER_105_69
*496 FILLER_106_1125
*497 FILLER_106_1137
*498 FILLER_106_1145
*499 FILLER_106_1148
*500 FILLER_106_1160
*501 FILLER_106_1172
*502 FILLER_106_1184
*503 FILLER_106_15
*504 FILLER_106_27
*505 FILLER_106_29
*506 FILLER_106_3
*507 FILLER_106_41
*508 FILLER_106_53
*509 FILLER_106_65
*510 FILLER_107_1122
*511 FILLER_107_1134
*512 FILLER_107_1146
*513 FILLER_107_1158
*514 FILLER_107_1170
*515 FILLER_107_1174
*516 FILLER_107_1176
*517 FILLER_107_1188
*518 FILLER_107_15
*519 FILLER_107_27
*520 FILLER_107_3
*521 FILLER_107_39
*522 FILLER_107_51
*523 FILLER_107_55
*524 FILLER_107_57
*525 FILLER_107_69
*526 FILLER_108_1122
*527 FILLER_108_1134
*528 FILLER_108_1146
*529 FILLER_108_1148
*530 FILLER_108_1160
*531 FILLER_108_1172
*532 FILLER_108_1184
*533 FILLER_108_15
*534 FILLER_108_27
*535 FILLER_108_29
*536 FILLER_108_3
*537 FILLER_108_41
*538 FILLER_108_53
*539 FILLER_108_65
*540 FILLER_109_1122
*541 FILLER_109_1134
*542 FILLER_109_1146
*543 FILLER_109_1158
*544 FILLER_109_1170
*545 FILLER_109_1174
*546 FILLER_109_1176
*547 FILLER_109_1188
*548 FILLER_109_15
*549 FILLER_109_27
*550 FILLER_109_3
*551 FILLER_109_39
*552 FILLER_109_51
*553 FILLER_109_55
*554 FILLER_109_57
*555 FILLER_109_69
*556 FILLER_10_1122
*557 FILLER_10_1134
*558 FILLER_10_1146
*559 FILLER_10_1148
*560 FILLER_10_1160
*561 FILLER_10_1172
*562 FILLER_10_1184
*563 FILLER_10_15
*564 FILLER_10_27
*565 FILLER_10_29
*566 FILLER_10_3
*567 FILLER_10_41
*568 FILLER_10_53
*569 FILLER_10_65
*570 FILLER_110_1122
*571 FILLER_110_1134
*572 FILLER_110_1146
*573 FILLER_110_1148
*574 FILLER_110_1160
*575 FILLER_110_1172
*576 FILLER_110_1184
*577 FILLER_110_15
*578 FILLER_110_27
*579 FILLER_110_29
*580 FILLER_110_3
*581 FILLER_110_41
*582 FILLER_110_53
*583 FILLER_110_65
*584 FILLER_111_1122
*585 FILLER_111_1134
*586 FILLER_111_1146
*587 FILLER_111_1158
*588 FILLER_111_1170
*589 FILLER_111_1174
*590 FILLER_111_1176
*591 FILLER_111_1188
*592 FILLER_111_15
*593 FILLER_111_27
*594 FILLER_111_3
*595 FILLER_111_39
*596 FILLER_111_51
*597 FILLER_111_55
*598 FILLER_111_57
*599 FILLER_111_69
*600 FILLER_112_1122
*601 FILLER_112_1134
*602 FILLER_112_1146
*603 FILLER_112_1148
*604 FILLER_112_1160
*605 FILLER_112_1172
*606 FILLER_112_1184
*607 FILLER_112_15
*608 FILLER_112_27
*609 FILLER_112_29
*610 FILLER_112_3
*611 FILLER_112_41
*612 FILLER_112_53
*613 FILLER_112_65
*614 FILLER_113_1122
*615 FILLER_113_1134
*616 FILLER_113_1146
*617 FILLER_113_1158
*618 FILLER_113_1170
*619 FILLER_113_1174
*620 FILLER_113_1176
*621 FILLER_113_1188
*622 FILLER_113_15
*623 FILLER_113_27
*624 FILLER_113_3
*625 FILLER_113_39
*626 FILLER_113_51
*627 FILLER_113_55
*628 FILLER_113_57
*629 FILLER_113_69
*630 FILLER_114_1122
*631 FILLER_114_1134
*632 FILLER_114_1146
*633 FILLER_114_1148
*634 FILLER_114_1160
*635 FILLER_114_1172
*636 FILLER_114_1184
*637 FILLER_114_15
*638 FILLER_114_27
*639 FILLER_114_29
*640 FILLER_114_3
*641 FILLER_114_41
*642 FILLER_114_53
*643 FILLER_114_65
*644 FILLER_115_1122
*645 FILLER_115_1134
*646 FILLER_115_1146
*647 FILLER_115_1158
*648 FILLER_115_1170
*649 FILLER_115_1174
*650 FILLER_115_1176
*651 FILLER_115_1188
*652 FILLER_115_15
*653 FILLER_115_27
*654 FILLER_115_3
*655 FILLER_115_39
*656 FILLER_115_51
*657 FILLER_115_55
*658 FILLER_115_57
*659 FILLER_115_69
*660 FILLER_116_1122
*661 FILLER_116_1134
*662 FILLER_116_1146
*663 FILLER_116_1148
*664 FILLER_116_1160
*665 FILLER_116_1172
*666 FILLER_116_1184
*667 FILLER_116_15
*668 FILLER_116_27
*669 FILLER_116_29
*670 FILLER_116_3
*671 FILLER_116_41
*672 FILLER_116_53
*673 FILLER_116_65
*674 FILLER_117_1007
*675 FILLER_117_1009
*676 FILLER_117_1021
*677 FILLER_117_1029
*678 FILLER_117_1032
*679 FILLER_117_1037
*680 FILLER_117_1049
*681 FILLER_117_1061
*682 FILLER_117_1065
*683 FILLER_117_1077
*684 FILLER_117_1089
*685 FILLER_117_109
*686 FILLER_117_1093
*687 FILLER_117_1105
*688 FILLER_117_1117
*689 FILLER_117_1121
*690 FILLER_117_113
*691 FILLER_117_1133
*692 FILLER_117_1145
*693 FILLER_117_1149
*694 FILLER_117_1161
*695 FILLER_117_1173
*696 FILLER_117_1177
*697 FILLER_117_1189
*698 FILLER_117_125
*699 FILLER_117_137
*700 FILLER_117_141
*701 FILLER_117_15
*702 FILLER_117_153
*703 FILLER_117_165
*704 FILLER_117_169
*705 FILLER_117_181
*706 FILLER_117_193
*707 FILLER_117_197
*708 FILLER_117_209
*709 FILLER_117_221
*710 FILLER_117_225
*711 FILLER_117_237
*712 FILLER_117_249
*713 FILLER_117_253
*714 FILLER_117_265
*715 FILLER_117_27
*716 FILLER_117_277
*717 FILLER_117_281
*718 FILLER_117_29
*719 FILLER_117_293
*720 FILLER_117_3
*721 FILLER_117_305
*722 FILLER_117_309
*723 FILLER_117_321
*724 FILLER_117_333
*725 FILLER_117_337
*726 FILLER_117_349
*727 FILLER_117_361
*728 FILLER_117_365
*729 FILLER_117_377
*730 FILLER_117_389
*731 FILLER_117_393
*732 FILLER_117_405
*733 FILLER_117_41
*734 FILLER_117_417
*735 FILLER_117_421
*736 FILLER_117_433
*737 FILLER_117_445
*738 FILLER_117_449
*739 FILLER_117_461
*740 FILLER_117_473
*741 FILLER_117_477
*742 FILLER_117_489
*743 FILLER_117_501
*744 FILLER_117_505
*745 FILLER_117_513
*746 FILLER_117_518
*747 FILLER_117_53
*748 FILLER_117_530
*749 FILLER_117_533
*750 FILLER_117_538
*751 FILLER_117_550
*752 FILLER_117_557
*753 FILLER_117_561
*754 FILLER_117_57
*755 FILLER_117_573
*756 FILLER_117_577
*757 FILLER_117_585
*758 FILLER_117_589
*759 FILLER_117_624
*760 FILLER_117_628
*761 FILLER_117_632
*762 FILLER_117_645
*763 FILLER_117_651
*764 FILLER_117_680
*765 FILLER_117_684
*766 FILLER_117_69
*767 FILLER_117_696
*768 FILLER_117_701
*769 FILLER_117_706
*770 FILLER_117_718
*771 FILLER_117_727
*772 FILLER_117_729
*773 FILLER_117_741
*774 FILLER_117_745
*775 FILLER_117_753
*776 FILLER_117_757
*777 FILLER_117_766
*778 FILLER_117_778
*779 FILLER_117_788
*780 FILLER_117_800
*781 FILLER_117_81
*782 FILLER_117_818
*783 FILLER_117_830
*784 FILLER_117_838
*785 FILLER_117_841
*786 FILLER_117_85
*787 FILLER_117_853
*788 FILLER_117_865
*789 FILLER_117_869
*790 FILLER_117_881
*791 FILLER_117_893
*792 FILLER_117_897
*793 FILLER_117_909
*794 FILLER_117_921
*795 FILLER_117_927
*796 FILLER_117_935
*797 FILLER_117_939
*798 FILLER_117_951
*799 FILLER_117_953
*800 FILLER_117_965
*801 FILLER_117_97
*802 FILLER_117_977
*803 FILLER_117_981
*804 FILLER_117_989
*805 FILLER_117_999
*806 FILLER_118_1005
*807 FILLER_118_1017
*808 FILLER_118_1029
*809 FILLER_118_1035
*810 FILLER_118_1037
*811 FILLER_118_1049
*812 FILLER_118_1061
*813 FILLER_118_1073
*814 FILLER_118_1085
*815 FILLER_118_109
*816 FILLER_118_1091
*817 FILLER_118_1093
*818 FILLER_118_1105
*819 FILLER_118_1117
*820 FILLER_118_1129
*821 FILLER_118_1141
*822 FILLER_118_1147
*823 FILLER_118_1149
*824 FILLER_118_1161
*825 FILLER_118_1173
*826 FILLER_118_1185
*827 FILLER_118_1189
*828 FILLER_118_121
*829 FILLER_118_133
*830 FILLER_118_139
*831 FILLER_118_141
*832 FILLER_118_15
*833 FILLER_118_153
*834 FILLER_118_165
*835 FILLER_118_177
*836 FILLER_118_189
*837 FILLER_118_195
*838 FILLER_118_197
*839 FILLER_118_209
*840 FILLER_118_221
*841 FILLER_118_233
*842 FILLER_118_245
*843 FILLER_118_251
*844 FILLER_118_253
*845 FILLER_118_265
*846 FILLER_118_27
*847 FILLER_118_277
*848 FILLER_118_289
*849 FILLER_118_29
*850 FILLER_118_3
*851 FILLER_118_301
*852 FILLER_118_307
*853 FILLER_118_309
*854 FILLER_118_321
*855 FILLER_118_333
*856 FILLER_118_345
*857 FILLER_118_357
*858 FILLER_118_363
*859 FILLER_118_365
*860 FILLER_118_377
*861 FILLER_118_389
*862 FILLER_118_401
*863 FILLER_118_41
*864 FILLER_118_413
*865 FILLER_118_419
*866 FILLER_118_421
*867 FILLER_118_433
*868 FILLER_118_445
*869 FILLER_118_457
*870 FILLER_118_469
*871 FILLER_118_475
*872 FILLER_118_477
*873 FILLER_118_489
*874 FILLER_118_501
*875 FILLER_118_505
*876 FILLER_118_517
*877 FILLER_118_527
*878 FILLER_118_53
*879 FILLER_118_531
*880 FILLER_118_533
*881 FILLER_118_545
*882 FILLER_118_549
*883 FILLER_118_572
*884 FILLER_118_584
*885 FILLER_118_589
*886 FILLER_118_592
*887 FILLER_118_604
*888 FILLER_118_616
*889 FILLER_118_628
*890 FILLER_118_634
*891 FILLER_118_637
*892 FILLER_118_643
*893 FILLER_118_645
*894 FILLER_118_65
*895 FILLER_118_675
*896 FILLER_118_687
*897 FILLER_118_699
*898 FILLER_118_701
*899 FILLER_118_713
*900 FILLER_118_725
*901 FILLER_118_737
*902 FILLER_118_745
*903 FILLER_118_749
*904 FILLER_118_755
*905 FILLER_118_757
*906 FILLER_118_765
*907 FILLER_118_77
*908 FILLER_118_790
*909 FILLER_118_802
*910 FILLER_118_810
*911 FILLER_118_813
*912 FILLER_118_825
*913 FILLER_118_83
*914 FILLER_118_837
*915 FILLER_118_849
*916 FILLER_118_85
*917 FILLER_118_861
*918 FILLER_118_867
*919 FILLER_118_869
*920 FILLER_118_881
*921 FILLER_118_893
*922 FILLER_118_905
*923 FILLER_118_917
*924 FILLER_118_923
*925 FILLER_118_925
*926 FILLER_118_937
*927 FILLER_118_949
*928 FILLER_118_961
*929 FILLER_118_97
*930 FILLER_118_973
*931 FILLER_118_979
*932 FILLER_118_981
*933 FILLER_118_993
*934 FILLER_119_1001
*935 FILLER_119_1007
*936 FILLER_119_1009
*937 FILLER_119_1021
*938 FILLER_119_1033
*939 FILLER_119_1045
*940 FILLER_119_105
*941 FILLER_119_1057
*942 FILLER_119_1063
*943 FILLER_119_1065
*944 FILLER_119_1077
*945 FILLER_119_1089
*946 FILLER_119_1101
*947 FILLER_119_111
*948 FILLER_119_1113
*949 FILLER_119_1119
*950 FILLER_119_1121
*951 FILLER_119_113
*952 FILLER_119_1133
*953 FILLER_119_1145
*954 FILLER_119_1157
*955 FILLER_119_1169
*956 FILLER_119_1175
*957 FILLER_119_1177
*958 FILLER_119_1189
*959 FILLER_119_125
*960 FILLER_119_137
*961 FILLER_119_149
*962 FILLER_119_15
*963 FILLER_119_161
*964 FILLER_119_167
*965 FILLER_119_169
*966 FILLER_119_181
*967 FILLER_119_193
*968 FILLER_119_205
*969 FILLER_119_217
*970 FILLER_119_223
*971 FILLER_119_225
*972 FILLER_119_237
*973 FILLER_119_249
*974 FILLER_119_261
*975 FILLER_119_27
*976 FILLER_119_273
*977 FILLER_119_279
*978 FILLER_119_281
*979 FILLER_119_293
*980 FILLER_119_3
*981 FILLER_119_305
*982 FILLER_119_317
*983 FILLER_119_329
*984 FILLER_119_335
*985 FILLER_119_337
*986 FILLER_119_349
*987 FILLER_119_361
*988 FILLER_119_373
*989 FILLER_119_385
*990 FILLER_119_39
*991 FILLER_119_391
*992 FILLER_119_393
*993 FILLER_119_405
*994 FILLER_119_417
*995 FILLER_119_429
*996 FILLER_119_441
*997 FILLER_119_447
*998 FILLER_119_449
*999 FILLER_119_455
*1000 FILLER_119_480
*1001 FILLER_119_503
*1002 FILLER_119_51
*1003 FILLER_119_527
*1004 FILLER_119_55
*1005 FILLER_119_552
*1006 FILLER_119_561
*1007 FILLER_119_569
*1008 FILLER_119_57
*1009 FILLER_119_590
*1010 FILLER_119_613
*1011 FILLER_119_657
*1012 FILLER_119_669
*1013 FILLER_119_673
*1014 FILLER_119_69
*1015 FILLER_119_697
*1016 FILLER_119_721
*1017 FILLER_119_725
*1018 FILLER_119_769
*1019 FILLER_119_781
*1020 FILLER_119_785
*1021 FILLER_119_793
*1022 FILLER_119_81
*1023 FILLER_119_818
*1024 FILLER_119_830
*1025 FILLER_119_838
*1026 FILLER_119_841
*1027 FILLER_119_853
*1028 FILLER_119_865
*1029 FILLER_119_877
*1030 FILLER_119_889
*1031 FILLER_119_895
*1032 FILLER_119_897
*1033 FILLER_119_909
*1034 FILLER_119_921
*1035 FILLER_119_93
*1036 FILLER_119_933
*1037 FILLER_119_945
*1038 FILLER_119_951
*1039 FILLER_119_953
*1040 FILLER_119_965
*1041 FILLER_119_977
*1042 FILLER_119_989
*1043 FILLER_11_1122
*1044 FILLER_11_1134
*1045 FILLER_11_1146
*1046 FILLER_11_1158
*1047 FILLER_11_1170
*1048 FILLER_11_1174
*1049 FILLER_11_1176
*1050 FILLER_11_1188
*1051 FILLER_11_15
*1052 FILLER_11_27
*1053 FILLER_11_3
*1054 FILLER_11_39
*1055 FILLER_11_51
*1056 FILLER_11_55
*1057 FILLER_11_57
*1058 FILLER_11_69
*1059 FILLER_120_1005
*1060 FILLER_120_1017
*1061 FILLER_120_1029
*1062 FILLER_120_1035
*1063 FILLER_120_1037
*1064 FILLER_120_1049
*1065 FILLER_120_1061
*1066 FILLER_120_1073
*1067 FILLER_120_1085
*1068 FILLER_120_109
*1069 FILLER_120_1091
*1070 FILLER_120_1093
*1071 FILLER_120_1105
*1072 FILLER_120_1117
*1073 FILLER_120_1129
*1074 FILLER_120_1141
*1075 FILLER_120_1147
*1076 FILLER_120_1149
*1077 FILLER_120_1161
*1078 FILLER_120_1173
*1079 FILLER_120_1185
*1080 FILLER_120_1189
*1081 FILLER_120_121
*1082 FILLER_120_133
*1083 FILLER_120_139
*1084 FILLER_120_141
*1085 FILLER_120_15
*1086 FILLER_120_153
*1087 FILLER_120_165
*1088 FILLER_120_177
*1089 FILLER_120_189
*1090 FILLER_120_195
*1091 FILLER_120_197
*1092 FILLER_120_209
*1093 FILLER_120_221
*1094 FILLER_120_233
*1095 FILLER_120_245
*1096 FILLER_120_251
*1097 FILLER_120_253
*1098 FILLER_120_265
*1099 FILLER_120_27
*1100 FILLER_120_277
*1101 FILLER_120_289
*1102 FILLER_120_29
*1103 FILLER_120_3
*1104 FILLER_120_301
*1105 FILLER_120_307
*1106 FILLER_120_309
*1107 FILLER_120_321
*1108 FILLER_120_333
*1109 FILLER_120_345
*1110 FILLER_120_357
*1111 FILLER_120_363
*1112 FILLER_120_365
*1113 FILLER_120_377
*1114 FILLER_120_389
*1115 FILLER_120_401
*1116 FILLER_120_41
*1117 FILLER_120_413
*1118 FILLER_120_419
*1119 FILLER_120_421
*1120 FILLER_120_433
*1121 FILLER_120_445
*1122 FILLER_120_457
*1123 FILLER_120_469
*1124 FILLER_120_475
*1125 FILLER_120_477
*1126 FILLER_120_489
*1127 FILLER_120_501
*1128 FILLER_120_513
*1129 FILLER_120_525
*1130 FILLER_120_53
*1131 FILLER_120_531
*1132 FILLER_120_533
*1133 FILLER_120_545
*1134 FILLER_120_557
*1135 FILLER_120_569
*1136 FILLER_120_581
*1137 FILLER_120_587
*1138 FILLER_120_589
*1139 FILLER_120_601
*1140 FILLER_120_613
*1141 FILLER_120_625
*1142 FILLER_120_637
*1143 FILLER_120_643
*1144 FILLER_120_645
*1145 FILLER_120_65
*1146 FILLER_120_657
*1147 FILLER_120_669
*1148 FILLER_120_681
*1149 FILLER_120_693
*1150 FILLER_120_699
*1151 FILLER_120_701
*1152 FILLER_120_713
*1153 FILLER_120_725
*1154 FILLER_120_737
*1155 FILLER_120_749
*1156 FILLER_120_755
*1157 FILLER_120_757
*1158 FILLER_120_769
*1159 FILLER_120_77
*1160 FILLER_120_781
*1161 FILLER_120_793
*1162 FILLER_120_805
*1163 FILLER_120_811
*1164 FILLER_120_813
*1165 FILLER_120_825
*1166 FILLER_120_83
*1167 FILLER_120_837
*1168 FILLER_120_849
*1169 FILLER_120_85
*1170 FILLER_120_861
*1171 FILLER_120_867
*1172 FILLER_120_869
*1173 FILLER_120_881
*1174 FILLER_120_893
*1175 FILLER_120_905
*1176 FILLER_120_917
*1177 FILLER_120_923
*1178 FILLER_120_925
*1179 FILLER_120_937
*1180 FILLER_120_949
*1181 FILLER_120_961
*1182 FILLER_120_97
*1183 FILLER_120_973
*1184 FILLER_120_979
*1185 FILLER_120_981
*1186 FILLER_120_993
*1187 FILLER_121_1001
*1188 FILLER_121_1007
*1189 FILLER_121_1009
*1190 FILLER_121_1021
*1191 FILLER_121_1033
*1192 FILLER_121_1045
*1193 FILLER_121_105
*1194 FILLER_121_1057
*1195 FILLER_121_1063
*1196 FILLER_121_1065
*1197 FILLER_121_1077
*1198 FILLER_121_1089
*1199 FILLER_121_1101
*1200 FILLER_121_111
*1201 FILLER_121_1113
*1202 FILLER_121_1119
*1203 FILLER_121_1121
*1204 FILLER_121_113
*1205 FILLER_121_1133
*1206 FILLER_121_1145
*1207 FILLER_121_1157
*1208 FILLER_121_1169
*1209 FILLER_121_1175
*1210 FILLER_121_1177
*1211 FILLER_121_1189
*1212 FILLER_121_125
*1213 FILLER_121_137
*1214 FILLER_121_149
*1215 FILLER_121_15
*1216 FILLER_121_161
*1217 FILLER_121_167
*1218 FILLER_121_169
*1219 FILLER_121_181
*1220 FILLER_121_193
*1221 FILLER_121_205
*1222 FILLER_121_217
*1223 FILLER_121_223
*1224 FILLER_121_225
*1225 FILLER_121_237
*1226 FILLER_121_249
*1227 FILLER_121_261
*1228 FILLER_121_27
*1229 FILLER_121_273
*1230 FILLER_121_279
*1231 FILLER_121_281
*1232 FILLER_121_293
*1233 FILLER_121_3
*1234 FILLER_121_305
*1235 FILLER_121_317
*1236 FILLER_121_329
*1237 FILLER_121_335
*1238 FILLER_121_337
*1239 FILLER_121_349
*1240 FILLER_121_361
*1241 FILLER_121_373
*1242 FILLER_121_385
*1243 FILLER_121_39
*1244 FILLER_121_391
*1245 FILLER_121_393
*1246 FILLER_121_405
*1247 FILLER_121_417
*1248 FILLER_121_429
*1249 FILLER_121_441
*1250 FILLER_121_447
*1251 FILLER_121_449
*1252 FILLER_121_461
*1253 FILLER_121_473
*1254 FILLER_121_485
*1255 FILLER_121_497
*1256 FILLER_121_503
*1257 FILLER_121_505
*1258 FILLER_121_51
*1259 FILLER_121_517
*1260 FILLER_121_529
*1261 FILLER_121_541
*1262 FILLER_121_55
*1263 FILLER_121_553
*1264 FILLER_121_559
*1265 FILLER_121_561
*1266 FILLER_121_57
*1267 FILLER_121_573
*1268 FILLER_121_585
*1269 FILLER_121_597
*1270 FILLER_121_609
*1271 FILLER_121_615
*1272 FILLER_121_617
*1273 FILLER_121_629
*1274 FILLER_121_641
*1275 FILLER_121_653
*1276 FILLER_121_665
*1277 FILLER_121_671
*1278 FILLER_121_673
*1279 FILLER_121_685
*1280 FILLER_121_69
*1281 FILLER_121_697
*1282 FILLER_121_709
*1283 FILLER_121_721
*1284 FILLER_121_727
*1285 FILLER_121_729
*1286 FILLER_121_741
*1287 FILLER_121_753
*1288 FILLER_121_765
*1289 FILLER_121_777
*1290 FILLER_121_783
*1291 FILLER_121_785
*1292 FILLER_121_797
*1293 FILLER_121_809
*1294 FILLER_121_81
*1295 FILLER_121_821
*1296 FILLER_121_833
*1297 FILLER_121_839
*1298 FILLER_121_841
*1299 FILLER_121_853
*1300 FILLER_121_865
*1301 FILLER_121_877
*1302 FILLER_121_889
*1303 FILLER_121_895
*1304 FILLER_121_897
*1305 FILLER_121_909
*1306 FILLER_121_921
*1307 FILLER_121_93
*1308 FILLER_121_933
*1309 FILLER_121_945
*1310 FILLER_121_951
*1311 FILLER_121_953
*1312 FILLER_121_965
*1313 FILLER_121_977
*1314 FILLER_121_989
*1315 FILLER_122_1005
*1316 FILLER_122_1017
*1317 FILLER_122_1029
*1318 FILLER_122_1035
*1319 FILLER_122_1037
*1320 FILLER_122_1049
*1321 FILLER_122_1061
*1322 FILLER_122_1073
*1323 FILLER_122_1085
*1324 FILLER_122_109
*1325 FILLER_122_1091
*1326 FILLER_122_1093
*1327 FILLER_122_1105
*1328 FILLER_122_1117
*1329 FILLER_122_1129
*1330 FILLER_122_1141
*1331 FILLER_122_1147
*1332 FILLER_122_1149
*1333 FILLER_122_1161
*1334 FILLER_122_1173
*1335 FILLER_122_1185
*1336 FILLER_122_1189
*1337 FILLER_122_121
*1338 FILLER_122_133
*1339 FILLER_122_139
*1340 FILLER_122_141
*1341 FILLER_122_15
*1342 FILLER_122_153
*1343 FILLER_122_165
*1344 FILLER_122_177
*1345 FILLER_122_189
*1346 FILLER_122_195
*1347 FILLER_122_197
*1348 FILLER_122_209
*1349 FILLER_122_221
*1350 FILLER_122_233
*1351 FILLER_122_245
*1352 FILLER_122_251
*1353 FILLER_122_253
*1354 FILLER_122_265
*1355 FILLER_122_27
*1356 FILLER_122_277
*1357 FILLER_122_289
*1358 FILLER_122_29
*1359 FILLER_122_3
*1360 FILLER_122_301
*1361 FILLER_122_307
*1362 FILLER_122_309
*1363 FILLER_122_321
*1364 FILLER_122_333
*1365 FILLER_122_345
*1366 FILLER_122_357
*1367 FILLER_122_363
*1368 FILLER_122_365
*1369 FILLER_122_377
*1370 FILLER_122_389
*1371 FILLER_122_401
*1372 FILLER_122_41
*1373 FILLER_122_413
*1374 FILLER_122_419
*1375 FILLER_122_421
*1376 FILLER_122_433
*1377 FILLER_122_445
*1378 FILLER_122_457
*1379 FILLER_122_469
*1380 FILLER_122_475
*1381 FILLER_122_477
*1382 FILLER_122_489
*1383 FILLER_122_501
*1384 FILLER_122_513
*1385 FILLER_122_525
*1386 FILLER_122_53
*1387 FILLER_122_531
*1388 FILLER_122_533
*1389 FILLER_122_545
*1390 FILLER_122_557
*1391 FILLER_122_569
*1392 FILLER_122_581
*1393 FILLER_122_587
*1394 FILLER_122_589
*1395 FILLER_122_601
*1396 FILLER_122_613
*1397 FILLER_122_625
*1398 FILLER_122_637
*1399 FILLER_122_643
*1400 FILLER_122_645
*1401 FILLER_122_65
*1402 FILLER_122_657
*1403 FILLER_122_669
*1404 FILLER_122_681
*1405 FILLER_122_693
*1406 FILLER_122_699
*1407 FILLER_122_701
*1408 FILLER_122_713
*1409 FILLER_122_725
*1410 FILLER_122_737
*1411 FILLER_122_749
*1412 FILLER_122_755
*1413 FILLER_122_757
*1414 FILLER_122_769
*1415 FILLER_122_77
*1416 FILLER_122_781
*1417 FILLER_122_793
*1418 FILLER_122_805
*1419 FILLER_122_811
*1420 FILLER_122_813
*1421 FILLER_122_825
*1422 FILLER_122_83
*1423 FILLER_122_837
*1424 FILLER_122_849
*1425 FILLER_122_85
*1426 FILLER_122_861
*1427 FILLER_122_867
*1428 FILLER_122_869
*1429 FILLER_122_881
*1430 FILLER_122_893
*1431 FILLER_122_905
*1432 FILLER_122_917
*1433 FILLER_122_923
*1434 FILLER_122_925
*1435 FILLER_122_937
*1436 FILLER_122_949
*1437 FILLER_122_961
*1438 FILLER_122_97
*1439 FILLER_122_973
*1440 FILLER_122_979
*1441 FILLER_122_981
*1442 FILLER_122_993
*1443 FILLER_123_1001
*1444 FILLER_123_1007
*1445 FILLER_123_1009
*1446 FILLER_123_1021
*1447 FILLER_123_1033
*1448 FILLER_123_1045
*1449 FILLER_123_105
*1450 FILLER_123_1057
*1451 FILLER_123_1063
*1452 FILLER_123_1065
*1453 FILLER_123_1077
*1454 FILLER_123_1089
*1455 FILLER_123_1101
*1456 FILLER_123_111
*1457 FILLER_123_1113
*1458 FILLER_123_1119
*1459 FILLER_123_1121
*1460 FILLER_123_113
*1461 FILLER_123_1133
*1462 FILLER_123_1145
*1463 FILLER_123_1157
*1464 FILLER_123_1169
*1465 FILLER_123_1175
*1466 FILLER_123_1177
*1467 FILLER_123_1189
*1468 FILLER_123_125
*1469 FILLER_123_137
*1470 FILLER_123_149
*1471 FILLER_123_15
*1472 FILLER_123_161
*1473 FILLER_123_167
*1474 FILLER_123_169
*1475 FILLER_123_181
*1476 FILLER_123_193
*1477 FILLER_123_205
*1478 FILLER_123_217
*1479 FILLER_123_223
*1480 FILLER_123_225
*1481 FILLER_123_237
*1482 FILLER_123_249
*1483 FILLER_123_261
*1484 FILLER_123_27
*1485 FILLER_123_273
*1486 FILLER_123_279
*1487 FILLER_123_281
*1488 FILLER_123_293
*1489 FILLER_123_3
*1490 FILLER_123_305
*1491 FILLER_123_317
*1492 FILLER_123_329
*1493 FILLER_123_335
*1494 FILLER_123_337
*1495 FILLER_123_349
*1496 FILLER_123_361
*1497 FILLER_123_373
*1498 FILLER_123_385
*1499 FILLER_123_39
*1500 FILLER_123_391
*1501 FILLER_123_393
*1502 FILLER_123_405
*1503 FILLER_123_417
*1504 FILLER_123_429
*1505 FILLER_123_441
*1506 FILLER_123_447
*1507 FILLER_123_449
*1508 FILLER_123_461
*1509 FILLER_123_473
*1510 FILLER_123_485
*1511 FILLER_123_497
*1512 FILLER_123_503
*1513 FILLER_123_505
*1514 FILLER_123_51
*1515 FILLER_123_517