*SPEF "ieee 1481-1999"
*DESIGN "counter"
*DATE "15:38:26 Tuesday March 04, 2025"
*VENDOR "The OpenROAD Project"
*PROGRAM "OpenROAD"
*VERSION "edf00dff99f6c40d67a30c0e22a8191c5d2ed9d6"
*DESIGN_FLOW "NAME_SCOPE LOCAL" "PIN_CAP NONE"
*DIVIDER /
*DELIMITER :
*BUS_DELIMITER []
*T_UNIT 1 NS
*C_UNIT 1 PF
*R_UNIT 1 OHM
*L_UNIT 1 HENRY

*NAME_MAP
*1 addr00[0]
*2 addr00[1]
*3 addr00[2]
*4 addr00[3]
*5 addr00[4]
*6 addr00[5]
*7 addr00[6]
*8 addr00[7]
*9 addr01[0]
*10 addr01[1]
*11 addr01[2]
*12 addr01[3]
*13 addr01[4]
*14 addr01[5]
*15 addr01[6]
*16 addr01[7]
*17 clk
*18 csb00
*19 csb01
*20 din00[0]
*21 din00[10]
*22 din00[11]
*23 din00[12]
*24 din00[13]
*25 din00[14]
*26 din00[15]
*27 din00[1]
*28 din00[2]
*29 din00[3]
*30 din00[4]
*31 din00[5]
*32 din00[6]
*33 din00[7]
*34 din00[8]
*35 din00[9]
*36 din01[0]
*37 din01[10]
*38 din01[11]
*39 din01[12]
*40 din01[13]
*41 din01[14]
*42 din01[15]
*43 din01[1]
*44 din01[2]
*45 din01[3]
*46 din01[4]
*47 din01[5]
*48 din01[6]
*49 din01[7]
*50 din01[8]
*51 din01[9]
*52 rst
*53 sine_out[0]
*54 sine_out[10]
*55 sine_out[11]
*56 sine_out[12]
*57 sine_out[13]
*58 sine_out[14]
*59 sine_out[15]
*60 sine_out[1]
*61 sine_out[2]
*62 sine_out[3]
*63 sine_out[4]
*64 sine_out[5]
*65 sine_out[6]
*66 sine_out[7]
*67 sine_out[8]
*68 sine_out[9]
*71 _000_
*72 _001_
*73 _002_
*74 _003_
*75 _004_
*76 _005_
*77 _006_
*78 _007_
*79 _008_
*80 _009_
*81 _010_
*82 _011_
*83 _012_
*84 _013_
*85 _014_
*86 _015_
*87 _016_
*88 _017_
*89 _018_
*90 _019_
*91 _020_
*92 _021_
*93 _022_
*94 _023_
*95 _024_
*96 _025_
*97 _026_
*98 _027_
*99 _028_
*100 _029_
*101 _030_
*102 _031_
*103 _032_
*104 _033_
*105 _034_
*106 _035_
*107 _036_
*108 _037_
*109 _038_
*110 _039_
*111 _040_
*112 _041_
*113 _042_
*114 _043_
*115 _044_
*116 _045_
*117 _046_
*118 _047_
*119 _048_
*120 _049_
*121 _050_
*122 _051_
*123 _052_
*124 _053_
*125 _054_
*126 _055_
*127 _056_
*128 _057_
*129 _058_
*130 clknet_0_clk
*131 clknet_2_0__leaf_clk
*132 clknet_2_1__leaf_clk
*133 clknet_2_2__leaf_clk
*134 clknet_2_3__leaf_clk
*135 net1
*136 net10
*137 net100
*138 net101
*139 net102
*140 net103
*141 net104
*142 net105
*143 net106
*144 net107
*145 net108
*146 net109
*147 net11
*148 net110
*149 net111
*150 net112
*151 net113
*152 net114
*153 net115
*154 net116
*155 net117
*156 net118
*157 net119
*158 net12
*159 net13
*160 net14
*161 net15
*162 net16
*163 net17
*164 net18
*165 net19
*166 net2
*167 net20
*168 net21
*169 net22
*170 net23
*171 net24
*172 net25
*173 net26
*174 net27
*175 net28
*176 net29
*177 net3
*178 net30
*179 net31
*180 net32
*181 net33
*182 net34
*183 net35
*184 net36
*185 net37
*186 net38
*187 net39
*188 net4
*189 net40
*190 net41
*191 net42
*192 net43
*193 net44
*194 net45
*195 net46
*196 net47
*197 net48
*198 net49
*199 net5
*200 net50
*201 net51
*202 net52
*203 net53
*204 net54
*205 net55
*206 net56
*207 net57
*208 net58
*209 net59
*210 net6
*211 net60
*212 net61
*213 net62
*214 net63
*215 net64
*216 net65
*217 net66
*218 net67
*219 net68
*220 net69
*221 net7
*222 net70
*223 net71
*224 net72
*225 net73
*226 net74
*227 net75
*228 net76
*229 net77
*230 net78
*231 net79
*232 net8
*233 net80
*234 net81
*235 net82
*236 net83
*237 net84
*238 net85
*239 net86
*240 net87
*241 net88
*242 net89
*243 net9
*244 net90
*245 net91
*246 net92
*247 net93
*248 net94
*249 net95
*250 net96
*251 net97
*252 net98
*253 net99
*254 sine_out_temp0\[0\]
*255 sine_out_temp0\[10\]
*256 sine_out_temp0\[11\]
*257 sine_out_temp0\[12\]
*258 sine_out_temp0\[13\]
*259 sine_out_temp0\[14\]
*260 sine_out_temp0\[15\]
*261 sine_out_temp0\[1\]
*262 sine_out_temp0\[2\]
*263 sine_out_temp0\[3\]
*264 sine_out_temp0\[4\]
*265 sine_out_temp0\[5\]
*266 sine_out_temp0\[6\]
*267 sine_out_temp0\[7\]
*268 sine_out_temp0\[8\]
*269 sine_out_temp0\[9\]
*270 sine_out_temp1\[0\]
*271 sine_out_temp1\[10\]
*272 sine_out_temp1\[11\]
*273 sine_out_temp1\[12\]
*274 sine_out_temp1\[13\]
*275 sine_out_temp1\[14\]
*276 sine_out_temp1\[15\]
*277 sine_out_temp1\[1\]
*278 sine_out_temp1\[2\]
*279 sine_out_temp1\[3\]
*280 sine_out_temp1\[4\]
*281 sine_out_temp1\[5\]
*282 sine_out_temp1\[6\]
*283 sine_out_temp1\[7\]
*284 sine_out_temp1\[8\]
*285 sine_out_temp1\[9\]
*286 tcout\[0\]
*287 tcout\[1\]
*288 tcout\[2\]
*289 tcout\[3\]
*290 tcout\[4\]
*291 tcout\[5\]
*292 tcout\[6\]
*293 tcout\[7\]
*294 tcout\[8\]
*295 ANTENNA_1
*296 ANTENNA_2
*297 ANTENNA_3
*298 ANTENNA_4
*299 ANTENNA_5
*300 ANTENNA_6
*301 ANTENNA_7
*302 ANTENNA_8
*303 ANTENNA__061__A
*304 ANTENNA__063__A1
*305 ANTENNA__063__S
*306 ANTENNA__064__A1
*307 ANTENNA__064__S
*308 ANTENNA__065__A1
*309 ANTENNA__065__S
*310 ANTENNA__066__A1
*311 ANTENNA__066__S
*312 ANTENNA__067__A1
*313 ANTENNA__067__S
*314 ANTENNA__067__X
*315 ANTENNA__068__A1
*316 ANTENNA__068__S
*317 ANTENNA__068__X
*318 ANTENNA__069__A1
*319 ANTENNA__069__S
*320 ANTENNA__070__A0
*321 ANTENNA__070__A1
*322 ANTENNA__070__S
*323 ANTENNA__071__A1
*324 ANTENNA__071__S
*325 ANTENNA__072__A1
*326 ANTENNA__072__S
*327 ANTENNA__073__A1
*328 ANTENNA__074__A1
*329 ANTENNA__075__A1
*330 ANTENNA__075__X
*331 ANTENNA__076__A1
*332 ANTENNA__077__A1
*333 ANTENNA__077__X
*334 ANTENNA__078__A1
*335 ANTENNA__080__B
*336 ANTENNA__081__A1
*337 ANTENNA__081__B1
*338 ANTENNA__081__Y
*339 ANTENNA__082__B
*340 ANTENNA__083__B
*341 ANTENNA__083__X
*342 ANTENNA__085__A
*343 ANTENNA__086__B
*344 ANTENNA__087__A
*345 ANTENNA__087__B
*346 ANTENNA__087__C
*347 ANTENNA__088__A2
*348 ANTENNA__091__B
*349 ANTENNA__092__A
*350 ANTENNA__092__B
*351 ANTENNA__092__C
*352 ANTENNA__092__X
*353 ANTENNA__093__A1
*354 ANTENNA__093__A2
*355 ANTENNA__093__A4
*356 ANTENNA__093__B1
*357 ANTENNA__093__X
*358 ANTENNA__094__A_N
*359 ANTENNA__094__B
*360 ANTENNA__095__B
*361 ANTENNA__096__A
*362 ANTENNA__102__A
*363 ANTENNA__104__A
*364 ANTENNA__106__A
*365 ANTENNA__108__A
*366 ANTENNA__109__A
*367 ANTENNA__111__A
*368 ANTENNA__112__A
*369 ANTENNA__113__A
*370 ANTENNA__114__A
*371 ANTENNA__115__A
*372 ANTENNA__116__A
*373 ANTENNA__117__A
*374 ANTENNA__118__A
*375 ANTENNA__119__A
*376 ANTENNA__120__CLK
*377 ANTENNA__120__Q
*378 ANTENNA__121__CLK
*379 ANTENNA__121__Q
*380 ANTENNA__122__CLK
*381 ANTENNA__122__Q
*382 ANTENNA__123__CLK
*383 ANTENNA__123__Q
*384 ANTENNA__124__CLK
*385 ANTENNA__124__D
*386 ANTENNA__125__CLK
*387 ANTENNA__125__Q
*388 ANTENNA__126__CLK
*389 ANTENNA__126__D
*390 ANTENNA__127__CLK
*391 ANTENNA__128__CLK
*392 ANTENNA__129__CLK
*393 ANTENNA__130__CLK
*394 ANTENNA__131__CLK
*395 ANTENNA__132__CLK
*396 ANTENNA__133__CLK
*397 ANTENNA__134__CLK
*398 ANTENNA__135__CLK
*399 ANTENNA__136__CLK
*400 ANTENNA__137__CLK
*401 ANTENNA__137__Q
*402 ANTENNA__138__CLK
*403 ANTENNA__138__Q
*404 ANTENNA__139__CLK
*405 ANTENNA__139__Q
*406 ANTENNA__140__CLK
*407 ANTENNA__140__Q
*408 ANTENNA__141__CLK
*409 ANTENNA__141__D
*410 ANTENNA__141__Q
*411 ANTENNA__142__CLK
*412 ANTENNA__142__D
*413 ANTENNA__142__Q
*414 ANTENNA__143__CLK
*415 ANTENNA__143__Q
*416 ANTENNA__144__CLK
*417 ANTENNA__144__Q
*418 ANTENNA_clkbuf_0_clk_A
*419 ANTENNA_clkbuf_0_clk_X
*420 ANTENNA_clkbuf_2_0__f_clk_A
*421 ANTENNA_clkbuf_2_0__f_clk_X
*422 ANTENNA_clkbuf_2_1__f_clk_A
*423 ANTENNA_clkbuf_2_1__f_clk_X
*424 ANTENNA_clkbuf_2_2__f_clk_A
*425 ANTENNA_clkbuf_2_2__f_clk_X
*426 ANTENNA_clkbuf_2_3__f_clk_A
*427 ANTENNA_clkbuf_2_3__f_clk_X
*428 ANTENNA_clkload0_A
*429 ANTENNA_clkload1_A
*430 ANTENNA_clkload2_A
*431 ANTENNA_fanout112_A
*432 ANTENNA_fanout113_A
*433 ANTENNA_fanout113_X
*434 ANTENNA_fanout114_X
*435 ANTENNA_fanout84_X
*436 ANTENNA_input10_A
*437 ANTENNA_input10_X
*438 ANTENNA_input11_A
*439 ANTENNA_input12_A
*440 ANTENNA_input13_A
*441 ANTENNA_input14_A
*442 ANTENNA_input15_A
*443 ANTENNA_input16_A
*444 ANTENNA_input17_A
*445 ANTENNA_input18_A
*446 ANTENNA_input19_A
*447 ANTENNA_input1_A
*448 ANTENNA_input20_A
*449 ANTENNA_input21_A
*450 ANTENNA_input22_A
*451 ANTENNA_input23_A
*452 ANTENNA_input24_A
*453 ANTENNA_input25_A
*454 ANTENNA_input26_A
*455 ANTENNA_input27_A
*456 ANTENNA_input28_A
*457 ANTENNA_input29_A
*458 ANTENNA_input2_A
*459 ANTENNA_input30_A
*460 ANTENNA_input31_A
*461 ANTENNA_input32_A
*462 ANTENNA_input33_A
*463 ANTENNA_input34_A
*464 ANTENNA_input35_A
*465 ANTENNA_input35_X
*466 ANTENNA_input36_A
*467 ANTENNA_input36_X
*468 ANTENNA_input37_A
*469 ANTENNA_input37_X
*470 ANTENNA_input38_A
*471 ANTENNA_input38_X
*472 ANTENNA_input39_A
*473 ANTENNA_input39_X
*474 ANTENNA_input3_A
*475 ANTENNA_input40_A
*476 ANTENNA_input40_X
*477 ANTENNA_input41_A
*478 ANTENNA_input41_X
*479 ANTENNA_input42_A
*480 ANTENNA_input42_X
*481 ANTENNA_input43_A
*482 ANTENNA_input43_X
*483 ANTENNA_input44_A
*484 ANTENNA_input44_X
*485 ANTENNA_input45_A
*486 ANTENNA_input45_X
*487 ANTENNA_input46_A
*488 ANTENNA_input46_X
*489 ANTENNA_input47_A
*490 ANTENNA_input47_X
*491 ANTENNA_input48_A
*492 ANTENNA_input48_X
*493 ANTENNA_input49_A
*494 ANTENNA_input49_X
*495 ANTENNA_input4_A
*496 ANTENNA_input50_A
*497 ANTENNA_input50_X
*498 ANTENNA_input51_A
*499 ANTENNA_input5_A
*500 ANTENNA_input6_A
*501 ANTENNA_input7_A
*502 ANTENNA_input8_A
*503 ANTENNA_input9_A
*504 ANTENNA_input9_X
*505 ANTENNA_load_slew101_A
*506 ANTENNA_load_slew102_X
*507 ANTENNA_load_slew103_X
*508 ANTENNA_load_slew104_X
*509 ANTENNA_load_slew106_A
*510 ANTENNA_load_slew107_X
*511 ANTENNA_load_slew108_X
*512 ANTENNA_load_slew109_A
*513 ANTENNA_load_slew110_X
*514 ANTENNA_load_slew86_A
*515 ANTENNA_load_slew86_X
*516 ANTENNA_load_slew87_X
*517 ANTENNA_load_slew88_X
*518 ANTENNA_load_slew90_X
*519 ANTENNA_load_slew91_A
*520 ANTENNA_load_slew91_X
*521 ANTENNA_load_slew92_X
*522 ANTENNA_load_slew94_A
*523 ANTENNA_load_slew94_X
*524 ANTENNA_load_slew95_X
*525 ANTENNA_load_slew98_X
*526 ANTENNA_mem_i0_addr1\[2\]
*527 ANTENNA_mem_i0_addr1\[3\]
*528 ANTENNA_mem_i0_addr1\[4\]
*529 ANTENNA_mem_i0_addr1\[5\]
*530 ANTENNA_mem_i0_addr1\[6\]
*531 ANTENNA_mem_i0_addr1\[7\]
*532 ANTENNA_mem_i0_clk0
*533 ANTENNA_mem_i0_clk1
*534 ANTENNA_mem_i0_dout1\[7\]
*535 ANTENNA_mem_i1_addr0\[0\]
*536 ANTENNA_mem_i1_addr0\[1\]
*537 ANTENNA_mem_i1_addr1\[0\]
*538 ANTENNA_mem_i1_addr1\[1\]
*539 ANTENNA_mem_i1_addr1\[6\]
*540 ANTENNA_mem_i1_clk0
*541 ANTENNA_mem_i1_clk1
*542 ANTENNA_mem_i1_din0\[0\]
*543 ANTENNA_mem_i1_din0\[10\]
*544 ANTENNA_mem_i1_din0\[11\]
*545 ANTENNA_mem_i1_din0\[12\]
*546 ANTENNA_mem_i1_din0\[13\]
*547 ANTENNA_mem_i1_din0\[14\]
*548 ANTENNA_mem_i1_din0\[15\]
*549 ANTENNA_mem_i1_din0\[1\]
*550 ANTENNA_mem_i1_din0\[2\]
*551 ANTENNA_mem_i1_din0\[3\]
*552 ANTENNA_mem_i1_din0\[4\]
*553 ANTENNA_mem_i1_din0\[5\]
*554 ANTENNA_mem_i1_din0\[6\]
*555 ANTENNA_mem_i1_din0\[7\]
*556 ANTENNA_mem_i1_din0\[8\]
*557 ANTENNA_mem_i1_din0\[9\]
*558 ANTENNA_output52_A
*559 ANTENNA_output53_A
*560 ANTENNA_output54_A
*561 ANTENNA_output56_A
*562 ANTENNA_output59_A
*563 ANTENNA_output60_A
*564 ANTENNA_output61_A
*565 ANTENNA_output62_A
*566 ANTENNA_output63_A
*567 ANTENNA_output64_A
*568 ANTENNA_output65_A
*569 ANTENNA_output66_A
*570 ANTENNA_output67_A
*571 ANTENNA_wire68_X
*572 ANTENNA_wire69_X
*573 ANTENNA_wire70_X
*574 ANTENNA_wire71_X
*575 ANTENNA_wire72_X
*576 ANTENNA_wire73_X
*577 ANTENNA_wire74_X
*578 ANTENNA_wire75_X
*579 ANTENNA_wire76_X
*580 ANTENNA_wire77_X
*581 ANTENNA_wire78_X
*582 ANTENNA_wire79_X
*583 ANTENNA_wire80_X
*584 ANTENNA_wire81_X
*585 ANTENNA_wire82_X
*586 ANTENNA_wire83_X
*587 FILLER_0_1005
*588 FILLER_0_1009
*589 FILLER_0_1021
*590 FILLER_0_1033
*591 FILLER_0_1037
*592 FILLER_0_1049
*593 FILLER_0_1061
*594 FILLER_0_1065
*595 FILLER_0_1077
*596 FILLER_0_1089
*597 FILLER_0_109
*598 FILLER_0_1093
*599 FILLER_0_1105
*600 FILLER_0_1117
*601 FILLER_0_1121
*602 FILLER_0_113
*603 FILLER_0_1133
*604 FILLER_0_1145
*605 FILLER_0_1149
*606 FILLER_0_1161
*607 FILLER_0_1167
*608 FILLER_0_125
*609 FILLER_0_137
*610 FILLER_0_141
*611 FILLER_0_15
*612 FILLER_0_153
*613 FILLER_0_165
*614 FILLER_0_169
*615 FILLER_0_181
*616 FILLER_0_193
*617 FILLER_0_197
*618 FILLER_0_209
*619 FILLER_0_221
*620 FILLER_0_225
*621 FILLER_0_237
*622 FILLER_0_244
*623 FILLER_0_258
*624 FILLER_0_266
*625 FILLER_0_27
*626 FILLER_0_272
*627 FILLER_0_286
*628 FILLER_0_29
*629 FILLER_0_294
*630 FILLER_0_3
*631 FILLER_0_300
*632 FILLER_0_307
*633 FILLER_0_309
*634 FILLER_0_315
*635 FILLER_0_321
*636 FILLER_0_329
*637 FILLER_0_335
*638 FILLER_0_337
*639 FILLER_0_343
*640 FILLER_0_349
*641 FILLER_0_357
*642 FILLER_0_363
*643 FILLER_0_365
*644 FILLER_0_371
*645 FILLER_0_377
*646 FILLER_0_384
*647 FILLER_0_398
*648 FILLER_0_406
*649 FILLER_0_41
*650 FILLER_0_412
*651 FILLER_0_426
*652 FILLER_0_434
*653 FILLER_0_440
*654 FILLER_0_447
*655 FILLER_0_449
*656 FILLER_0_455
*657 FILLER_0_461
*658 FILLER_0_473
*659 FILLER_0_477
*660 FILLER_0_489
*661 FILLER_0_501
*662 FILLER_0_505
*663 FILLER_0_517
*664 FILLER_0_529
*665 FILLER_0_53
*666 FILLER_0_533
*667 FILLER_0_545
*668 FILLER_0_557
*669 FILLER_0_561
*670 FILLER_0_57
*671 FILLER_0_573
*672 FILLER_0_585
*673 FILLER_0_589
*674 FILLER_0_601
*675 FILLER_0_613
*676 FILLER_0_617
*677 FILLER_0_629
*678 FILLER_0_641
*679 FILLER_0_645
*680 FILLER_0_657
*681 FILLER_0_669
*682 FILLER_0_673
*683 FILLER_0_685
*684 FILLER_0_69
*685 FILLER_0_697
*686 FILLER_0_701
*687 FILLER_0_713
*688 FILLER_0_725
*689 FILLER_0_729
*690 FILLER_0_741
*691 FILLER_0_753
*692 FILLER_0_757
*693 FILLER_0_769
*694 FILLER_0_781
*695 FILLER_0_785
*696 FILLER_0_797
*697 FILLER_0_809
*698 FILLER_0_81
*699 FILLER_0_813
*700 FILLER_0_825
*701 FILLER_0_837
*702 FILLER_0_841
*703 FILLER_0_85
*704 FILLER_0_853
*705 FILLER_0_865
*706 FILLER_0_869
*707 FILLER_0_881
*708 FILLER_0_893
*709 FILLER_0_897
*710 FILLER_0_909
*711 FILLER_0_921
*712 FILLER_0_925
*713 FILLER_0_937
*714 FILLER_0_949
*715 FILLER_0_953
*716 FILLER_0_965
*717 FILLER_0_97
*718 FILLER_0_977
*719 FILLER_0_981
*720 FILLER_0_993
*721 FILLER_100_1134
*722 FILLER_100_1146
*723 FILLER_100_1148
*724 FILLER_100_1160
*725 FILLER_100_15
*726 FILLER_100_27
*727 FILLER_100_29
*728 FILLER_100_3
*729 FILLER_100_41
*730 FILLER_100_53
*731 FILLER_100_65
*732 FILLER_101_1126
*733 FILLER_101_1138
*734 FILLER_101_1150
*735 FILLER_101_1162
*736 FILLER_101_15
*737 FILLER_101_27
*738 FILLER_101_3
*739 FILLER_101_39
*740 FILLER_101_51
*741 FILLER_101_55
*742 FILLER_101_57
*743 FILLER_101_69
*744 FILLER_102_1124
*745 FILLER_102_1136
*746 FILLER_102_1144
*747 FILLER_102_1148
*748 FILLER_102_1160
*749 FILLER_102_15
*750 FILLER_102_27
*751 FILLER_102_29
*752 FILLER_102_3
*753 FILLER_102_41
*754 FILLER_102_53
*755 FILLER_102_65
*756 FILLER_103_1144
*757 FILLER_103_1156
*758 FILLER_103_15
*759 FILLER_103_27
*760 FILLER_103_3
*761 FILLER_103_39
*762 FILLER_103_51
*763 FILLER_103_55
*764 FILLER_103_57
*765 FILLER_103_69
*766 FILLER_104_1122
*767 FILLER_104_1134
*768 FILLER_104_1146
*769 FILLER_104_1148
*770 FILLER_104_1160
*771 FILLER_104_15
*772 FILLER_104_27
*773 FILLER_104_29
*774 FILLER_104_3
*775 FILLER_104_41
*776 FILLER_104_53
*777 FILLER_104_65
*778 FILLER_105_1125
*779 FILLER_105_1137
*780 FILLER_105_1149
*781 FILLER_105_1161
*782 FILLER_105_1167
*783 FILLER_105_15
*784 FILLER_105_27
*785 FILLER_105_3
*786 FILLER_105_39
*787 FILLER_105_51
*788 FILLER_105_55
*789 FILLER_105_57
*790 FILLER_105_69
*791 FILLER_106_1125
*792 FILLER_106_1137
*793 FILLER_106_1145
*794 FILLER_106_1148
*795 FILLER_106_1160
*796 FILLER_106_15
*797 FILLER_106_27
*798 FILLER_106_29
*799 FILLER_106_3
*800 FILLER_106_41
*801 FILLER_106_53
*802 FILLER_106_65
*803 FILLER_107_1122
*804 FILLER_107_1134
*805 FILLER_107_1146
*806 FILLER_107_1158
*807 FILLER_107_1166
*808 FILLER_107_15
*809 FILLER_107_27
*810 FILLER_107_3
*811 FILLER_107_39
*812 FILLER_107_51
*813 FILLER_107_55
*814 FILLER_107_57
*815 FILLER_107_69
*816 FILLER_108_1122
*817 FILLER_108_1134
*818 FILLER_108_1146
*819 FILLER_108_1148
*820 FILLER_108_1160
*821 FILLER_108_15
*822 FILLER_108_27
*823 FILLER_108_29
*824 FILLER_108_3
*825 FILLER_108_41
*826 FILLER_108_53
*827 FILLER_108_65
*828 FILLER_109_11
*829 FILLER_109_1122
*830 FILLER_109_1134
*831 FILLER_109_1146
*832 FILLER_109_1158
*833 FILLER_109_1166
*834 FILLER_109_23
*835 FILLER_109_35
*836 FILLER_109_47
*837 FILLER_109_55
*838 FILLER_109_57
*839 FILLER_109_69
*840 FILLER_10_1122
*841 FILLER_10_1134
*842 FILLER_10_1146
*843 FILLER_10_1148
*844 FILLER_10_1160
*845 FILLER_10_15
*846 FILLER_10_27
*847 FILLER_10_29
*848 FILLER_10_3
*849 FILLER_10_41
*850 FILLER_10_53
*851 FILLER_10_65
*852 FILLER_110_11
*853 FILLER_110_1122
*854 FILLER_110_1134
*855 FILLER_110_1146
*856 FILLER_110_1148
*857 FILLER_110_1160
*858 FILLER_110_23
*859 FILLER_110_27
*860 FILLER_110_29
*861 FILLER_110_41
*862 FILLER_110_53
*863 FILLER_110_65
*864 FILLER_111_1122
*865 FILLER_111_1134
*866 FILLER_111_1146
*867 FILLER_111_1158
*868 FILLER_111_1166
*869 FILLER_111_20
*870 FILLER_111_32
*871 FILLER_111_44
*872 FILLER_111_57
*873 FILLER_111_69
*874 FILLER_111_8
*875 FILLER_112_1122
*876 FILLER_112_1134
*877 FILLER_112_1146
*878 FILLER_112_1148
*879 FILLER_112_1160
*880 FILLER_112_20
*881 FILLER_112_29
*882 FILLER_112_41
*883 FILLER_112_53
*884 FILLER_112_65
*885 FILLER_112_8
*886 FILLER_113_1122
*887 FILLER_113_1134
*888 FILLER_113_1146
*889 FILLER_113_1158
*890 FILLER_113_1166
*891 FILLER_113_15
*892 FILLER_113_27
*893 FILLER_113_3
*894 FILLER_113_39
*895 FILLER_113_51
*896 FILLER_113_55
*897 FILLER_113_57
*898 FILLER_113_69
*899 FILLER_114_1122
*900 FILLER_114_1134
*901 FILLER_114_1146
*902 FILLER_114_1148
*903 FILLER_114_1160
*904 FILLER_114_20
*905 FILLER_114_29
*906 FILLER_114_41
*907 FILLER_114_53
*908 FILLER_114_65
*909 FILLER_114_8
*910 FILLER_115_1122
*911 FILLER_115_1134
*912 FILLER_115_1146
*913 FILLER_115_1158
*914 FILLER_115_1162
*915 FILLER_115_20
*916 FILLER_115_32
*917 FILLER_115_44
*918 FILLER_115_57
*919 FILLER_115_69
*920 FILLER_115_8
*921 FILLER_116_1122
*922 FILLER_116_1134
*923 FILLER_116_1146
*924 FILLER_116_1148
*925 FILLER_116_1160
*926 FILLER_116_20
*927 FILLER_116_29
*928 FILLER_116_41
*929 FILLER_116_53
*930 FILLER_116_65
*931 FILLER_116_8
*932 FILLER_117_1000
*933 FILLER_117_1005
*934 FILLER_117_1063
*935 FILLER_117_1084
*936 FILLER_117_109
*937 FILLER_117_1093
*938 FILLER_117_1105
*939 FILLER_117_1117
*940 FILLER_117_1121
*941 FILLER_117_113
*942 FILLER_117_1133
*943 FILLER_117_1145
*944 FILLER_117_1149
*945 FILLER_117_1161
*946 FILLER_117_125
*947 FILLER_117_137
*948 FILLER_117_141
*949 FILLER_117_153
*950 FILLER_117_165
*951 FILLER_117_169
*952 FILLER_117_181
*953 FILLER_117_20
*954 FILLER_117_219
*955 FILLER_117_249
*956 FILLER_117_253
*957 FILLER_117_265
*958 FILLER_117_277
*959 FILLER_117_281
*960 FILLER_117_29
*961 FILLER_117_293
*962 FILLER_117_301
*963 FILLER_117_304
*964 FILLER_117_309
*965 FILLER_117_321
*966 FILLER_117_329
*967 FILLER_117_335
*968 FILLER_117_337
*969 FILLER_117_349
*970 FILLER_117_361
*971 FILLER_117_365
*972 FILLER_117_377
*973 FILLER_117_389
*974 FILLER_117_393
*975 FILLER_117_405
*976 FILLER_117_41
*977 FILLER_117_417
*978 FILLER_117_421
*979 FILLER_117_433
*980 FILLER_117_445
*981 FILLER_117_449
*982 FILLER_117_461
*983 FILLER_117_473
*984 FILLER_117_477
*985 FILLER_117_489
*986 FILLER_117_501
*987 FILLER_117_505
*988 FILLER_117_517
*989 FILLER_117_529
*990 FILLER_117_53
*991 FILLER_117_533
*992 FILLER_117_545
*993 FILLER_117_557
*994 FILLER_117_561
*995 FILLER_117_569
*996 FILLER_117_57
*997 FILLER_117_572
*998 FILLER_117_584
*999 FILLER_117_589
*1000 FILLER_117_595
*1001 FILLER_117_621
*1002 FILLER_117_633
*1003 FILLER_117_641
*1004 FILLER_117_645
*1005 FILLER_117_657
*1006 FILLER_117_669
*1007 FILLER_117_673
*1008 FILLER_117_685
*1009 FILLER_117_69
*1010 FILLER_117_697
*1011 FILLER_117_701
*1012 FILLER_117_713
*1013 FILLER_117_725
*1014 FILLER_117_729
*1015 FILLER_117_741
*1016 FILLER_117_753
*1017 FILLER_117_757
*1018 FILLER_117_769
*1019 FILLER_117_781
*1020 FILLER_117_785
*1021 FILLER_117_797
*1022 FILLER_117_8
*1023 FILLER_117_809
*1024 FILLER_117_81
*1025 FILLER_117_813
*1026 FILLER_117_825
*1027 FILLER_117_837
*1028 FILLER_117_841
*1029 FILLER_117_85
*1030 FILLER_117_853
*1031 FILLER_117_865
*1032 FILLER_117_869
*1033 FILLER_117_881
*1034 FILLER_117_893
*1035 FILLER_117_919
*1036 FILLER_117_923
*1037 FILLER_117_953
*1038 FILLER_117_97
*1039 FILLER_118_1037
*1040 FILLER_118_1043
*1041 FILLER_118_1073
*1042 FILLER_118_1085
*1043 FILLER_118_109
*1044 FILLER_118_1091
*1045 FILLER_118_1102
*1046 FILLER_118_1114
*1047 FILLER_118_1126
*1048 FILLER_118_1138
*1049 FILLER_118_1146
*1050 FILLER_118_1149
*1051 FILLER_118_1161
*1052 FILLER_118_1167
*1053 FILLER_118_121
*1054 FILLER_118_133
*1055 FILLER_118_139
*1056 FILLER_118_141
*1057 FILLER_118_15
*1058 FILLER_118_153
*1059 FILLER_118_165
*1060 FILLER_118_173
*1061 FILLER_118_180
*1062 FILLER_118_192
*1063 FILLER_118_197
*1064 FILLER_118_205
*1065 FILLER_118_234
*1066 FILLER_118_246
*1067 FILLER_118_27
*1068 FILLER_118_275
*1069 FILLER_118_281
*1070 FILLER_118_29
*1071 FILLER_118_3
*1072 FILLER_118_305
*1073 FILLER_118_313
*1074 FILLER_118_339
*1075 FILLER_118_361
*1076 FILLER_118_365
*1077 FILLER_118_377
*1078 FILLER_118_389
*1079 FILLER_118_401
*1080 FILLER_118_41
*1081 FILLER_118_413
*1082 FILLER_118_419
*1083 FILLER_118_421
*1084 FILLER_118_433
*1085 FILLER_118_445
*1086 FILLER_118_457
*1087 FILLER_118_469
*1088 FILLER_118_475
*1089 FILLER_118_477
*1090 FILLER_118_489
*1091 FILLER_118_501
*1092 FILLER_118_513
*1093 FILLER_118_525
*1094 FILLER_118_53
*1095 FILLER_118_531
*1096 FILLER_118_533
*1097 FILLER_118_545
*1098 FILLER_118_557
*1099 FILLER_118_569
*1100 FILLER_118_581
*1101 FILLER_118_587
*1102 FILLER_118_589
*1103 FILLER_118_597
*1104 FILLER_118_609
*1105 FILLER_118_621
*1106 FILLER_118_633
*1107 FILLER_118_641
*1108 FILLER_118_645
*1109 FILLER_118_65
*1110 FILLER_118_657
*1111 FILLER_118_669
*1112 FILLER_118_681
*1113 FILLER_118_693
*1114 FILLER_118_699
*1115 FILLER_118_701
*1116 FILLER_118_713
*1117 FILLER_118_725
*1118 FILLER_118_729
*1119 FILLER_118_733
*1120 FILLER_118_755
*1121 FILLER_118_759
*1122 FILLER_118_765
*1123 FILLER_118_77
*1124 FILLER_118_777
*1125 FILLER_118_789
*1126 FILLER_118_801
*1127 FILLER_118_809
*1128 FILLER_118_813
*1129 FILLER_118_825
*1130 FILLER_118_83
*1131 FILLER_118_85
*1132 FILLER_118_860
*1133 FILLER_118_869
*1134 FILLER_118_881
*1135 FILLER_118_922
*1136 FILLER_118_97
*1137 FILLER_118_977
*1138 FILLER_119_1038
*1139 FILLER_119_105
*1140 FILLER_119_1074
*1141 FILLER_119_1086
*1142 FILLER_119_1092
*1143 FILLER_119_1097
*1144 FILLER_119_1109
*1145 FILLER_119_111
*1146 FILLER_119_1117
*1147 FILLER_119_1121
*1148 FILLER_119_113
*1149 FILLER_119_1133
*1150 FILLER_119_1145
*1151 FILLER_119_1157
*1152 FILLER_119_125
*1153 FILLER_119_137
*1154 FILLER_119_149
*1155 FILLER_119_161
*1156 FILLER_119_167
*1157 FILLER_119_169
*1158 FILLER_119_181
*1159 FILLER_119_20
*1160 FILLER_119_217
*1161 FILLER_119_221
*1162 FILLER_119_225
*1163 FILLER_119_237
*1164 FILLER_119_263
*1165 FILLER_119_275
*1166 FILLER_119_279
*1167 FILLER_119_281
*1168 FILLER_119_293
*1169 FILLER_119_305
*1170 FILLER_119_313
*1171 FILLER_119_32
*1172 FILLER_119_326
*1173 FILLER_119_334
*1174 FILLER_119_337
*1175 FILLER_119_345
*1176 FILLER_119_362
*1177 FILLER_119_381
*1178 FILLER_119_389
*1179 FILLER_119_393
*1180 FILLER_119_405
*1181 FILLER_119_421
*1182 FILLER_119_437
*1183 FILLER_119_44
*1184 FILLER_119_445
*1185 FILLER_119_449
*1186 FILLER_119_461
*1187 FILLER_119_465
*1188 FILLER_119_479
*1189 FILLER_119_487
*1190 FILLER_119_503
*1191 FILLER_119_507
*1192 FILLER_119_519
*1193 FILLER_119_531
*1194 FILLER_119_543
*1195 FILLER_119_555
*1196 FILLER_119_559
*1197 FILLER_119_561
*1198 FILLER_119_57
*1199 FILLER_119_573
*1200 FILLER_119_585
*1201 FILLER_119_597
*1202 FILLER_119_609
*1203 FILLER_119_615
*1204 FILLER_119_617
*1205 FILLER_119_629
*1206 FILLER_119_641
*1207 FILLER_119_667
*1208 FILLER_119_671
*1209 FILLER_119_673
*1210 FILLER_119_685
*1211 FILLER_119_69
*1212 FILLER_119_697
*1213 FILLER_119_724
*1214 FILLER_119_727
*1215 FILLER_119_738
*1216 FILLER_119_742
*1217 FILLER_119_776
*1218 FILLER_119_796
*1219 FILLER_119_8
*1220 FILLER_119_81
*1221 FILLER_119_813
*1222 FILLER_119_821
*1223 FILLER_119_829
*1224 FILLER_119_837
*1225 FILLER_119_841
*1226 FILLER_119_851
*1227 FILLER_119_863
*1228 FILLER_119_875
*1229 FILLER_119_887
*1230 FILLER_119_895
*1231 FILLER_119_897
*1232 FILLER_119_909
*1233 FILLER_119_93
*1234 FILLER_119_940
*1235 FILLER_119_944
*1236 FILLER_119_955
*1237 FILLER_119_984
*1238 FILLER_11_1122
*1239 FILLER_11_1134
*1240 FILLER_11_1146
*1241 FILLER_11_1158
*1242 FILLER_11_1166
*1243 FILLER_11_15
*1244 FILLER_11_27
*1245 FILLER_11_3
*1246 FILLER_11_39
*1247 FILLER_11_51
*1248 FILLER_11_55
*1249 FILLER_11_57
*1250 FILLER_11_69
*1251 FILLER_120_1009
*1252 FILLER_120_1045
*1253 FILLER_120_1057
*1254 FILLER_120_1063
*1255 FILLER_120_1065
*1256 FILLER_120_1077
*1257 FILLER_120_1089
*1258 FILLER_120_109
*1259 FILLER_120_1093
*1260 FILLER_120_11
*1261 FILLER_120_1105
*1262 FILLER_120_1117
*1263 FILLER_120_1121
*1264 FILLER_120_113
*1265 FILLER_120_1133
*1266 FILLER_120_1145
*1267 FILLER_120_1149
*1268 FILLER_120_1161
*1269 FILLER_120_125
*1270 FILLER_120_137
*1271 FILLER_120_141
*1272 FILLER_120_153
*1273 FILLER_120_161
*1274 FILLER_120_165
*1275 FILLER_120_169
*1276 FILLER_120_181
*1277 FILLER_120_193
*1278 FILLER_120_197
*1279 FILLER_120_209
*1280 FILLER_120_221
*1281 FILLER_120_225
*1282 FILLER_120_23
*1283 FILLER_120_237
*1284 FILLER_120_245
*1285 FILLER_120_251
*1286 FILLER_120_253
*1287 FILLER_120_258
*1288 FILLER_120_266
*1289 FILLER_120_27
*1290 FILLER_120_271
*1291 FILLER_120_279
*1292 FILLER_120_283
*1293 FILLER_120_29
*1294 FILLER_120_291
*1295 FILLER_120_296
*1296 FILLER_120_300
*1297 FILLER_120_306
*1298 FILLER_120_311
*1299 FILLER_120_321
*1300 FILLER_120_329
*1301 FILLER_120_334
*1302 FILLER_120_337
*1303 FILLER_120_347
*1304 FILLER_120_355
*1305 FILLER_120_359
*1306 FILLER_120_363
*1307 FILLER_120_365
*1308 FILLER_120_369
*1309 FILLER_120_372
*1310 FILLER_120_380
*1311 FILLER_120_385
*1312 FILLER_120_391
*1313 FILLER_120_393
*1314 FILLER_120_397
*1315 FILLER_120_405
*1316 FILLER_120_41
*1317 FILLER_120_410
*1318 FILLER_120_418
*1319 FILLER_120_423
*1320 FILLER_120_431
*1321 FILLER_120_436
*1322 FILLER_120_444
*1323 FILLER_120_449
*1324 FILLER_120_457
*1325 FILLER_120_461
*1326 FILLER_120_473
*1327 FILLER_120_477
*1328 FILLER_120_489
*1329 FILLER_120_501
*1330 FILLER_120_505
*1331 FILLER_120_517
*1332 FILLER_120_529
*1333 FILLER_120_53
*1334 FILLER_120_533
*1335 FILLER_120_545
*1336 FILLER_120_557
*1337 FILLER_120_561
*1338 FILLER_120_57
*1339 FILLER_120_573
*1340 FILLER_120_585
*1341 FILLER_120_589
*1342 FILLER_120_601
*1343 FILLER_120_613
*1344 FILLER_120_617
*1345 FILLER_120_629
*1346 FILLER_120_641
*1347 FILLER_120_645
*1348 FILLER_120_657
*1349 FILLER_120_669
*1350 FILLER_120_673
*1351 FILLER_120_685
*1352 FILLER_120_69
*1353 FILLER_120_697
*1354 FILLER_120_701
*1355 FILLER_120_713
*1356 FILLER_120_725
*1357 FILLER_120_729
*1358 FILLER_120_741
*1359 FILLER_120_749
*1360 FILLER_120_755
*1361 FILLER_120_757
*1362 FILLER_120_769
*1363 FILLER_120_781
*1364 FILLER_120_785
*1365 FILLER_120_797
*1366 FILLER_120_809
*1367 FILLER_120_81
*1368 FILLER_120_813
*1369 FILLER_120_825
*1370 FILLER_120_837
*1371 FILLER_120_841
*1372 FILLER_120_85
*1373 FILLER_120_853
*1374 FILLER_120_865
*1375 FILLER_120_869
*1376 FILLER_120_881
*1377 FILLER_120_893
*1378 FILLER_120_897
*1379 FILLER_120_909
*1380 FILLER_120_921
*1381 FILLER_120_925
*1382 FILLER_120_942
*1383 FILLER_120_946
*1384 FILLER_120_950
*1385 FILLER_120_959
*1386 FILLER_120_97
*1387 FILLER_120_979
*1388 FILLER_121_11
*1389 FILLER_121_1122
*1390 FILLER_121_1134
*1391 FILLER_121_1140
*1392 FILLER_121_1152
*1393 FILLER_121_1164
*1394 FILLER_121_23
*1395 FILLER_121_35
*1396 FILLER_121_47
*1397 FILLER_121_55
*1398 FILLER_121_57
*1399 FILLER_121_69
*1400 FILLER_122_11
*1401 FILLER_122_1122
*1402 FILLER_122_1134
*1403 FILLER_122_1146
*1404 FILLER_122_1148
*1405 FILLER_122_1160
*1406 FILLER_122_23
*1407 FILLER_122_27
*1408 FILLER_122_29
*1409 FILLER_122_41
*1410 FILLER_122_53
*1411 FILLER_122_65
*1412 FILLER_123_1122
*1413 FILLER_123_1134
*1414 FILLER_123_1146
*1415 FILLER_123_1158
*1416 FILLER_123_1166
*1417 FILLER_123_15
*1418 FILLER_123_27
*1419 FILLER_123_3
*1420 FILLER_123_39
*1421 FILLER_123_51
*1422 FILLER_123_55
*1423 FILLER_123_57
*1424 FILLER_123_69
*1425 FILLER_124_11
*1426 FILLER_124_1122
*1427 FILLER_124_1134
*1428 FILLER_124_1146
*1429 FILLER_124_1148
*1430 FILLER_124_1160
*1431 FILLER_124_23
*1432 FILLER_124_27
*1433 FILLER_124_29
*1434 FILLER_124_41
*1435 FILLER_124_53
*1436 FILLER_124_65
*1437 FILLER_125_1122
*1438 FILLER_125_1134
*1439 FILLER_125_1146
*1440 FILLER_125_1158
*1441 FILLER_125_1166
*1442 FILLER_125_15
*1443 FILLER_125_27
*1444 FILLER_125_39
*1445 FILLER_125_51
*1446 FILLER_125_55
*1447 FILLER_125_57
*1448 FILLER_125_69
*1449 FILLER_126_1122
*1450 FILLER_126_1134
*1451 FILLER_126_1146
*1452 FILLER_126_1148
*1453 FILLER_126_1160
*1454 FILLER_126_13
*1455 FILLER_126_25
*1456 FILLER_126_29
*1457 FILLER_126_41
*1458 FILLER_126_53
*1459 FILLER_126_65
*1460 FILLER_127_11
*1461 FILLER_127_1122
*1462 FILLER_127_1134
*1463 FILLER_127_1146
*1464 FILLER_127_1158
*1465 FILLER_127_1166
*1466 FILLER_127_23
*1467 FILLER_127_35
*1468 FILLER_127_47
*1469 FILLER_127_55
*1470 FILLER_127_57
*1471 FILLER_127_69
*1472 FILLER_128_1122
*1473 FILLER_128_1134
*1474 FILLER_128_1146
*1475 FILLER_128_1148
*1476 FILLER_128_1160
*1477 FILLER_128_15
*1478 FILLER_128_27
*1479 FILLER_128_29
*1480 FILLER_128_3
*1481 FILLER_128_41
*1482 FILLER_128_53
*1483 FILLER_128_65
*1484 FILLER_129_11
*1485 FILLER_129_1122
*1486 FILLER_129_1134
*1487 FILLER_129_1146
*1488 FILLER_129_1158
*1489 FILLER_129_1166
*1490 FILLER_129_23
*1491 FILLER_129_35
*1492 FILLER_129_47
*1493 FILLER_129_55
*1494 FILLER_129_57
*1495 FILLER_129_69
*1496 FILLER_12_1122
*1497 FILLER_12_1134
*1498 FILLER_12_1146
*1499 FILLER_12_1148
*1500 FILLER_12_1160
*1501 FILLER_12_15
*1502 FILLER_12_27
*1503 FILLER_12_29
*1504 FILLER_12_3
*1505 FILLER_12_41
*1506 FILLER_12_53
*1507 FILLER_12_65
*1508 FILLER_130_11
*1509 FILLER_130_1122
*1510 FILLER_130_1134
*1511 FILLER_130_1146
*1512 FILLER_130_1148
*1513 FILLER_130_1160
*1514 FILLER_130_23
*1515 FILLER_130_27
*1516 FILLER_130_29
*1517 FILLER_130_41
*1518 FILLER_130_53