*SPEF "ieee 1481-1999"
*DESIGN "counter"
*DATE "15:12:40 Tuesday March 04, 2025"
*VENDOR "The OpenROAD Project"
*PROGRAM "OpenROAD"
*VERSION "edf00dff99f6c40d67a30c0e22a8191c5d2ed9d6"
*DESIGN_FLOW "NAME_SCOPE LOCAL" "PIN_CAP NONE"
*DIVIDER /
*DELIMITER :
*BUS_DELIMITER []
*T_UNIT 1 NS
*C_UNIT 1 PF
*R_UNIT 1 OHM
*L_UNIT 1 HENRY

*NAME_MAP
*1 addr00[0]
*2 addr00[1]
*3 addr00[2]
*4 addr00[3]
*5 addr00[4]
*6 addr00[5]
*7 addr00[6]
*8 addr00[7]
*9 addr01[0]
*10 addr01[1]
*11 addr01[2]
*12 addr01[3]
*13 addr01[4]
*14 addr01[5]
*15 addr01[6]
*16 addr01[7]
*17 clk
*18 csb00
*19 csb01
*20 din00[0]
*21 din00[10]
*22 din00[11]
*23 din00[12]
*24 din00[13]
*25 din00[14]
*26 din00[15]
*27 din00[1]
*28 din00[2]
*29 din00[3]
*30 din00[4]
*31 din00[5]
*32 din00[6]
*33 din00[7]
*34 din00[8]
*35 din00[9]
*36 din01[0]
*37 din01[10]
*38 din01[11]
*39 din01[12]
*40 din01[13]
*41 din01[14]
*42 din01[15]
*43 din01[1]
*44 din01[2]
*45 din01[3]
*46 din01[4]
*47 din01[5]
*48 din01[6]
*49 din01[7]
*50 din01[8]
*51 din01[9]
*52 rst
*53 sine_out[0]
*54 sine_out[10]
*55 sine_out[11]
*56 sine_out[12]
*57 sine_out[13]
*58 sine_out[14]
*59 sine_out[15]
*60 sine_out[1]
*61 sine_out[2]
*62 sine_out[3]
*63 sine_out[4]
*64 sine_out[5]
*65 sine_out[6]
*66 sine_out[7]
*67 sine_out[8]
*68 sine_out[9]
*71 _000_
*72 _001_
*73 _002_
*74 _003_
*75 _004_
*76 _005_
*77 _006_
*78 _007_
*79 _008_
*80 _009_
*81 _010_
*82 _011_
*83 _012_
*84 _013_
*85 _014_
*86 _015_
*87 _016_
*88 _017_
*89 _018_
*90 _019_
*91 _020_
*92 _021_
*93 _022_
*94 _023_
*95 _024_
*96 _025_
*97 _026_
*98 _027_
*99 _028_
*100 _029_
*101 _030_
*102 _031_
*103 _032_
*104 _033_
*105 _034_
*106 _035_
*107 _036_
*108 _037_
*109 _038_
*110 _039_
*111 _040_
*112 _041_
*113 _042_
*114 _043_
*115 _044_
*116 _045_
*117 _046_
*118 _047_
*119 _048_
*120 _049_
*121 _050_
*122 _051_
*123 _052_
*124 _053_
*125 _054_
*126 _055_
*127 _056_
*128 _057_
*129 _058_
*130 clknet_0_clk
*131 clknet_2_0_0_clk
*132 clknet_2_1_0_clk
*133 clknet_2_2_0_clk
*134 clknet_2_3_0_clk
*135 net1
*136 net10
*137 net100
*138 net101
*139 net102
*140 net103
*141 net104
*142 net105
*143 net106
*144 net107
*145 net108
*146 net109
*147 net11
*148 net110
*149 net111
*150 net112
*151 net113
*152 net114
*153 net115
*154 net116
*155 net117
*156 net118
*157 net119
*158 net12
*159 net120
*160 net121
*161 net122
*162 net123
*163 net124
*164 net125
*165 net126
*166 net127
*167 net128
*168 net129
*169 net13
*170 net130
*171 net131
*172 net132
*173 net133
*174 net134
*175 net135
*176 net136
*177 net137
*178 net14
*179 net15
*180 net16
*181 net17
*182 net18
*183 net19
*184 net2
*185 net20
*186 net21
*187 net22
*188 net23
*189 net24
*190 net25
*191 net26
*192 net27
*193 net28
*194 net29
*195 net3
*196 net30
*197 net31
*198 net32
*199 net33
*200 net34
*201 net35
*202 net36
*203 net37
*204 net38
*205 net39
*206 net4
*207 net40
*208 net41
*209 net42
*210 net43
*211 net44
*212 net45
*213 net46
*214 net47
*215 net48
*216 net49
*217 net5
*218 net50
*219 net51
*220 net52
*221 net53
*222 net54
*223 net55
*224 net56
*225 net57
*226 net58
*227 net59
*228 net6
*229 net60
*230 net61
*231 net62
*232 net63
*233 net64
*234 net65
*235 net66
*236 net67
*237 net68
*238 net69
*239 net7
*240 net70
*241 net71
*242 net72
*243 net73
*244 net74
*245 net75
*246 net76
*247 net77
*248 net78
*249 net79
*250 net8
*251 net80
*252 net81
*253 net82
*254 net83
*255 net84
*256 net85
*257 net86
*258 net87
*259 net88
*260 net89
*261 net9
*262 net90
*263 net91
*264 net92
*265 net93
*266 net94
*267 net95
*268 net96
*269 net97
*270 net98
*271 net99
*272 sine_out_temp0\[0\]
*273 sine_out_temp0\[10\]
*274 sine_out_temp0\[11\]
*275 sine_out_temp0\[12\]
*276 sine_out_temp0\[13\]
*277 sine_out_temp0\[14\]
*278 sine_out_temp0\[15\]
*279 sine_out_temp0\[1\]
*280 sine_out_temp0\[2\]
*281 sine_out_temp0\[3\]
*282 sine_out_temp0\[4\]
*283 sine_out_temp0\[5\]
*284 sine_out_temp0\[6\]
*285 sine_out_temp0\[7\]
*286 sine_out_temp0\[8\]
*287 sine_out_temp0\[9\]
*288 sine_out_temp1\[0\]
*289 sine_out_temp1\[10\]
*290 sine_out_temp1\[11\]
*291 sine_out_temp1\[12\]
*292 sine_out_temp1\[13\]
*293 sine_out_temp1\[14\]
*294 sine_out_temp1\[15\]
*295 sine_out_temp1\[1\]
*296 sine_out_temp1\[2\]
*297 sine_out_temp1\[3\]
*298 sine_out_temp1\[4\]
*299 sine_out_temp1\[5\]
*300 sine_out_temp1\[6\]
*301 sine_out_temp1\[7\]
*302 sine_out_temp1\[8\]
*303 sine_out_temp1\[9\]
*304 tcout\[0\]
*305 tcout\[1\]
*306 tcout\[2\]
*307 tcout\[3\]
*308 tcout\[4\]
*309 tcout\[5\]
*310 tcout\[6\]
*311 tcout\[7\]
*312 tcout\[8\]
*313 ANTENNA_1
*314 ANTENNA__063__A0
*315 ANTENNA__063__A1
*316 ANTENNA__063__X
*317 ANTENNA__064__A0
*318 ANTENNA__064__A1
*319 ANTENNA__064__X
*320 ANTENNA__065__A0
*321 ANTENNA__065__A1
*322 ANTENNA__065__X
*323 ANTENNA__066__A0
*324 ANTENNA__066__A1
*325 ANTENNA__066__X
*326 ANTENNA__067__A0
*327 ANTENNA__067__A1
*328 ANTENNA__067__X
*329 ANTENNA__068__A0
*330 ANTENNA__068__A1
*331 ANTENNA__068__X
*332 ANTENNA__069__A0
*333 ANTENNA__069__A1
*334 ANTENNA__069__X
*335 ANTENNA__070__A0
*336 ANTENNA__070__A1
*337 ANTENNA__070__X
*338 ANTENNA__071__A0
*339 ANTENNA__071__A1
*340 ANTENNA__071__X
*341 ANTENNA__072__A0
*342 ANTENNA__072__A1
*343 ANTENNA__072__X
*344 ANTENNA__073__A0
*345 ANTENNA__073__A1
*346 ANTENNA__073__S
*347 ANTENNA__073__X
*348 ANTENNA__074__A0
*349 ANTENNA__074__A1
*350 ANTENNA__074__S
*351 ANTENNA__074__X
*352 ANTENNA__075__A0
*353 ANTENNA__075__A1
*354 ANTENNA__075__S
*355 ANTENNA__075__X
*356 ANTENNA__076__A0
*357 ANTENNA__076__A1
*358 ANTENNA__076__S
*359 ANTENNA__076__X
*360 ANTENNA__077__A0
*361 ANTENNA__077__A1
*362 ANTENNA__077__S
*363 ANTENNA__077__X
*364 ANTENNA__078__A0
*365 ANTENNA__078__A1
*366 ANTENNA__078__S
*367 ANTENNA__078__X
*368 ANTENNA__083__C
*369 ANTENNA__091__A
*370 ANTENNA__091__B
*371 ANTENNA__091__X
*372 ANTENNA__092__A
*373 ANTENNA__092__D
*374 ANTENNA__093__A2
*375 ANTENNA__093__A3
*376 ANTENNA__095__A
*377 ANTENNA__102__A
*378 ANTENNA__103__A
*379 ANTENNA__104__A
*380 ANTENNA__105__A
*381 ANTENNA__106__A
*382 ANTENNA__107__A
*383 ANTENNA__111__A
*384 ANTENNA__112__A
*385 ANTENNA__113__A
*386 ANTENNA__114__A
*387 ANTENNA__115__A
*388 ANTENNA__116__A
*389 ANTENNA__117__A
*390 ANTENNA__118__A
*391 ANTENNA__119__A
*392 ANTENNA__120__CLK
*393 ANTENNA__120__D
*394 ANTENNA__120__Q
*395 ANTENNA__121__CLK
*396 ANTENNA__121__D
*397 ANTENNA__121__Q
*398 ANTENNA__122__CLK
*399 ANTENNA__122__D
*400 ANTENNA__122__Q
*401 ANTENNA__123__CLK
*402 ANTENNA__123__D
*403 ANTENNA__123__Q
*404 ANTENNA__124__CLK
*405 ANTENNA__124__D
*406 ANTENNA__124__Q
*407 ANTENNA__125__CLK
*408 ANTENNA__125__D
*409 ANTENNA__125__Q
*410 ANTENNA__126__CLK
*411 ANTENNA__126__D
*412 ANTENNA__126__Q
*413 ANTENNA__127__CLK
*414 ANTENNA__127__D
*415 ANTENNA__127__Q
*416 ANTENNA__128__CLK
*417 ANTENNA__129__CLK
*418 ANTENNA__130__CLK
*419 ANTENNA__131__CLK
*420 ANTENNA__132__CLK
*421 ANTENNA__133__CLK
*422 ANTENNA__134__CLK
*423 ANTENNA__135__CLK
*424 ANTENNA__136__CLK
*425 ANTENNA__136__Q
*426 ANTENNA__137__CLK
*427 ANTENNA__137__D
*428 ANTENNA__137__Q
*429 ANTENNA__138__CLK
*430 ANTENNA__138__D
*431 ANTENNA__138__Q
*432 ANTENNA__139__CLK
*433 ANTENNA__139__D
*434 ANTENNA__139__Q
*435 ANTENNA__140__CLK
*436 ANTENNA__140__D
*437 ANTENNA__140__Q
*438 ANTENNA__141__CLK
*439 ANTENNA__141__D
*440 ANTENNA__141__Q
*441 ANTENNA__142__CLK
*442 ANTENNA__142__D
*443 ANTENNA__142__Q
*444 ANTENNA__143__CLK
*445 ANTENNA__143__D
*446 ANTENNA__143__Q
*447 ANTENNA__144__CLK
*448 ANTENNA__144__D
*449 ANTENNA__144__Q
*450 ANTENNA_clkbuf_0_clk_A
*451 ANTENNA_clkbuf_0_clk_X
*452 ANTENNA_clkbuf_2_0_0_clk_A
*453 ANTENNA_clkbuf_2_0_0_clk_X
*454 ANTENNA_clkbuf_2_1_0_clk_A
*455 ANTENNA_clkbuf_2_1_0_clk_X
*456 ANTENNA_clkbuf_2_2_0_clk_A
*457 ANTENNA_clkbuf_2_2_0_clk_X
*458 ANTENNA_clkbuf_2_3_0_clk_A
*459 ANTENNA_clkbuf_2_3_0_clk_X
*460 ANTENNA_clkload0_A
*461 ANTENNA_clkload1_A
*462 ANTENNA_clkload2_A
*463 ANTENNA_fanout100_A
*464 ANTENNA_fanout101_A
*465 ANTENNA_fanout101_X
*466 ANTENNA_fanout131_A
*467 ANTENNA_fanout132_A
*468 ANTENNA_fanout132_X
*469 ANTENNA_fanout133_A
*470 ANTENNA_fanout133_X
*471 ANTENNA_input10_A
*472 ANTENNA_input11_A
*473 ANTENNA_input11_X
*474 ANTENNA_input12_A
*475 ANTENNA_input12_X
*476 ANTENNA_input13_A
*477 ANTENNA_input13_X
*478 ANTENNA_input14_A
*479 ANTENNA_input14_X
*480 ANTENNA_input15_A
*481 ANTENNA_input15_X
*482 ANTENNA_input16_A
*483 ANTENNA_input16_X
*484 ANTENNA_input17_A
*485 ANTENNA_input18_A
*486 ANTENNA_input19_A
*487 ANTENNA_input19_X
*488 ANTENNA_input1_A
*489 ANTENNA_input1_X
*490 ANTENNA_input20_A
*491 ANTENNA_input21_A
*492 ANTENNA_input22_A
*493 ANTENNA_input23_A
*494 ANTENNA_input24_A
*495 ANTENNA_input25_A
*496 ANTENNA_input26_A
*497 ANTENNA_input26_X
*498 ANTENNA_input27_A
*499 ANTENNA_input27_X
*500 ANTENNA_input28_A
*501 ANTENNA_input28_X
*502 ANTENNA_input29_A
*503 ANTENNA_input29_X
*504 ANTENNA_input2_A
*505 ANTENNA_input2_X
*506 ANTENNA_input30_A
*507 ANTENNA_input30_X
*508 ANTENNA_input31_A
*509 ANTENNA_input31_X
*510 ANTENNA_input32_A
*511 ANTENNA_input32_X
*512 ANTENNA_input33_A
*513 ANTENNA_input33_X
*514 ANTENNA_input34_A
*515 ANTENNA_input35_A
*516 ANTENNA_input36_A
*517 ANTENNA_input37_A
*518 ANTENNA_input38_A
*519 ANTENNA_input39_A
*520 ANTENNA_input3_A
*521 ANTENNA_input3_X
*522 ANTENNA_input40_A
*523 ANTENNA_input41_A
*524 ANTENNA_input42_A
*525 ANTENNA_input43_A
*526 ANTENNA_input44_A
*527 ANTENNA_input45_A
*528 ANTENNA_input46_A
*529 ANTENNA_input47_A
*530 ANTENNA_input48_A
*531 ANTENNA_input49_A
*532 ANTENNA_input4_A
*533 ANTENNA_input4_X
*534 ANTENNA_input50_A
*535 ANTENNA_input51_A
*536 ANTENNA_input51_X
*537 ANTENNA_input5_A
*538 ANTENNA_input5_X
*539 ANTENNA_input6_A
*540 ANTENNA_input6_X
*541 ANTENNA_input7_A
*542 ANTENNA_input7_X
*543 ANTENNA_input8_A
*544 ANTENNA_input8_X
*545 ANTENNA_input9_A
*546 ANTENNA_load_slew103_X
*547 ANTENNA_load_slew104_X
*548 ANTENNA_load_slew106_A
*549 ANTENNA_load_slew106_X
*550 ANTENNA_load_slew107_X
*551 ANTENNA_load_slew108_X
*552 ANTENNA_load_slew110_X
*553 ANTENNA_load_slew111_X
*554 ANTENNA_load_slew113_X
*555 ANTENNA_load_slew114_X
*556 ANTENNA_load_slew117_A
*557 ANTENNA_load_slew117_X
*558 ANTENNA_load_slew118_X
*559 ANTENNA_load_slew120_X
*560 ANTENNA_load_slew121_X
*561 ANTENNA_load_slew123_A
*562 ANTENNA_load_slew123_X
*563 ANTENNA_load_slew124_X
*564 ANTENNA_load_slew127_A
*565 ANTENNA_load_slew127_X
*566 ANTENNA_load_slew128_X
*567 ANTENNA_mem_i0_addr0\[0\]
*568 ANTENNA_mem_i0_addr0\[1\]
*569 ANTENNA_mem_i0_addr0\[2\]
*570 ANTENNA_mem_i0_addr0\[3\]
*571 ANTENNA_mem_i0_addr0\[4\]
*572 ANTENNA_mem_i0_addr0\[5\]
*573 ANTENNA_mem_i0_addr0\[6\]
*574 ANTENNA_mem_i0_addr0\[7\]
*575 ANTENNA_mem_i0_addr1\[0\]
*576 ANTENNA_mem_i0_addr1\[1\]
*577 ANTENNA_mem_i0_addr1\[2\]
*578 ANTENNA_mem_i0_addr1\[3\]
*579 ANTENNA_mem_i0_addr1\[4\]
*580 ANTENNA_mem_i0_addr1\[5\]
*581 ANTENNA_mem_i0_addr1\[6\]
*582 ANTENNA_mem_i0_addr1\[7\]
*583 ANTENNA_mem_i0_clk0
*584 ANTENNA_mem_i0_clk1
*585 ANTENNA_mem_i0_din0\[0\]
*586 ANTENNA_mem_i0_din0\[1\]
*587 ANTENNA_mem_i0_din0\[2\]
*588 ANTENNA_mem_i0_din0\[3\]
*589 ANTENNA_mem_i0_din0\[4\]
*590 ANTENNA_mem_i0_din0\[5\]
*591 ANTENNA_mem_i0_din0\[6\]
*592 ANTENNA_mem_i0_din0\[7\]
*593 ANTENNA_mem_i0_din0\[8\]
*594 ANTENNA_mem_i0_dout1\[0\]
*595 ANTENNA_mem_i0_dout1\[10\]
*596 ANTENNA_mem_i0_dout1\[11\]
*597 ANTENNA_mem_i0_dout1\[12\]
*598 ANTENNA_mem_i0_dout1\[13\]
*599 ANTENNA_mem_i0_dout1\[14\]
*600 ANTENNA_mem_i0_dout1\[15\]
*601 ANTENNA_mem_i0_dout1\[1\]
*602 ANTENNA_mem_i0_dout1\[2\]
*603 ANTENNA_mem_i0_dout1\[3\]
*604 ANTENNA_mem_i0_dout1\[4\]
*605 ANTENNA_mem_i0_dout1\[5\]
*606 ANTENNA_mem_i0_dout1\[6\]
*607 ANTENNA_mem_i0_dout1\[7\]
*608 ANTENNA_mem_i0_dout1\[8\]
*609 ANTENNA_mem_i0_dout1\[9\]
*610 ANTENNA_mem_i1_addr0\[2\]
*611 ANTENNA_mem_i1_addr0\[3\]
*612 ANTENNA_mem_i1_addr0\[4\]
*613 ANTENNA_mem_i1_addr0\[5\]
*614 ANTENNA_mem_i1_addr0\[6\]
*615 ANTENNA_mem_i1_addr0\[7\]
*616 ANTENNA_mem_i1_clk0
*617 ANTENNA_mem_i1_clk1
*618 ANTENNA_mem_i1_dout1\[0\]
*619 ANTENNA_mem_i1_dout1\[10\]
*620 ANTENNA_mem_i1_dout1\[11\]
*621 ANTENNA_mem_i1_dout1\[12\]
*622 ANTENNA_mem_i1_dout1\[13\]
*623 ANTENNA_mem_i1_dout1\[14\]
*624 ANTENNA_mem_i1_dout1\[15\]
*625 ANTENNA_mem_i1_dout1\[1\]
*626 ANTENNA_mem_i1_dout1\[2\]
*627 ANTENNA_mem_i1_dout1\[3\]
*628 ANTENNA_mem_i1_dout1\[4\]
*629 ANTENNA_mem_i1_dout1\[5\]
*630 ANTENNA_mem_i1_dout1\[6\]
*631 ANTENNA_mem_i1_dout1\[7\]
*632 ANTENNA_mem_i1_dout1\[8\]
*633 ANTENNA_mem_i1_dout1\[9\]
*634 ANTENNA_output52_A
*635 ANTENNA_output53_A
*636 ANTENNA_output54_A
*637 ANTENNA_output55_A
*638 ANTENNA_output56_A
*639 ANTENNA_output57_A
*640 ANTENNA_output58_A
*641 ANTENNA_output59_A
*642 ANTENNA_output60_A
*643 ANTENNA_output61_A
*644 ANTENNA_output62_A
*645 ANTENNA_output63_A
*646 ANTENNA_output64_A
*647 ANTENNA_output65_A
*648 ANTENNA_output66_A
*649 ANTENNA_output67_A
*650 ANTENNA_wire102_A
*651 ANTENNA_wire105_A
*652 ANTENNA_wire109_A
*653 ANTENNA_wire112_A
*654 ANTENNA_wire116_A
*655 ANTENNA_wire119_A
*656 ANTENNA_wire122_A
*657 ANTENNA_wire126_A
*658 ANTENNA_wire68_A
*659 ANTENNA_wire68_X
*660 ANTENNA_wire69_A
*661 ANTENNA_wire69_X
*662 ANTENNA_wire70_A
*663 ANTENNA_wire70_X
*664 ANTENNA_wire71_A
*665 ANTENNA_wire71_X
*666 ANTENNA_wire72_A
*667 ANTENNA_wire72_X
*668 ANTENNA_wire73_A
*669 ANTENNA_wire73_X
*670 ANTENNA_wire74_A
*671 ANTENNA_wire74_X
*672 ANTENNA_wire75_A
*673 ANTENNA_wire75_X
*674 ANTENNA_wire76_A
*675 ANTENNA_wire76_X
*676 ANTENNA_wire77_A
*677 ANTENNA_wire77_X
*678 ANTENNA_wire78_A
*679 ANTENNA_wire78_X
*680 ANTENNA_wire79_A
*681 ANTENNA_wire79_X
*682 ANTENNA_wire80_A
*683 ANTENNA_wire80_X
*684 ANTENNA_wire81_A
*685 ANTENNA_wire81_X
*686 ANTENNA_wire82_A
*687 ANTENNA_wire82_X
*688 ANTENNA_wire83_A
*689 ANTENNA_wire83_X
*690 ANTENNA_wire84_A
*691 ANTENNA_wire84_X
*692 ANTENNA_wire85_A
*693 ANTENNA_wire85_X
*694 ANTENNA_wire86_A
*695 ANTENNA_wire86_X
*696 ANTENNA_wire87_A
*697 ANTENNA_wire87_X
*698 ANTENNA_wire88_A
*699 ANTENNA_wire88_X
*700 ANTENNA_wire89_A
*701 ANTENNA_wire89_X
*702 ANTENNA_wire90_A
*703 ANTENNA_wire90_X
*704 ANTENNA_wire91_A
*705 ANTENNA_wire91_X
*706 ANTENNA_wire92_A
*707 ANTENNA_wire92_X
*708 ANTENNA_wire93_A
*709 ANTENNA_wire93_X
*710 ANTENNA_wire94_A
*711 ANTENNA_wire94_X
*712 ANTENNA_wire95_A
*713 ANTENNA_wire95_X
*714 ANTENNA_wire96_A
*715 ANTENNA_wire96_X
*716 ANTENNA_wire97_A
*717 ANTENNA_wire97_X
*718 ANTENNA_wire98_A
*719 ANTENNA_wire98_X
*720 ANTENNA_wire99_A
*721 ANTENNA_wire99_X
*722 FILLER_0_1005
*723 FILLER_0_1009
*724 FILLER_0_1021
*725 FILLER_0_1033
*726 FILLER_0_1037
*727 FILLER_0_1049
*728 FILLER_0_1061
*729 FILLER_0_1065
*730 FILLER_0_1077
*731 FILLER_0_1089
*732 FILLER_0_109
*733 FILLER_0_1093
*734 FILLER_0_1105
*735 FILLER_0_1117
*736 FILLER_0_1121
*737 FILLER_0_113
*738 FILLER_0_1133
*739 FILLER_0_1145
*740 FILLER_0_1149
*741 FILLER_0_1161
*742 FILLER_0_1170
*743 FILLER_0_1182
*744 FILLER_0_1189
*745 FILLER_0_1201
*746 FILLER_0_1210
*747 FILLER_0_1218
*748 FILLER_0_1224
*749 FILLER_0_1238
*750 FILLER_0_1246
*751 FILLER_0_125
*752 FILLER_0_1252
*753 FILLER_0_1261
*754 FILLER_0_1267
*755 FILLER_0_1273
*756 FILLER_0_1281
*757 FILLER_0_1287
*758 FILLER_0_1289
*759 FILLER_0_1301
*760 FILLER_0_1310
*761 FILLER_0_1322
*762 FILLER_0_1330
*763 FILLER_0_1338
*764 FILLER_0_1345
*765 FILLER_0_1357
*766 FILLER_0_1369
*767 FILLER_0_137
*768 FILLER_0_1373
*769 FILLER_0_1385
*770 FILLER_0_1392
*771 FILLER_0_1399
*772 FILLER_0_1406
*773 FILLER_0_141
*774 FILLER_0_1416
*775 FILLER_0_1437
*776 FILLER_0_1444
*777 FILLER_0_1451
*778 FILLER_0_1463
*779 FILLER_0_1475
*780 FILLER_0_1483
*781 FILLER_0_1485
*782 FILLER_0_1497
*783 FILLER_0_15
*784 FILLER_0_1509
*785 FILLER_0_1513
*786 FILLER_0_1525
*787 FILLER_0_153
*788 FILLER_0_1537
*789 FILLER_0_1541
*790 FILLER_0_1547
*791 FILLER_0_1553
*792 FILLER_0_1561
*793 FILLER_0_1567
*794 FILLER_0_1574
*795 FILLER_0_1582
*796 FILLER_0_1588
*797 FILLER_0_1602
*798 FILLER_0_1610
*799 FILLER_0_1616
*800 FILLER_0_1630
*801 FILLER_0_1637
*802 FILLER_0_1645
*803 FILLER_0_165
*804 FILLER_0_1651
*805 FILLER_0_1653
*806 FILLER_0_1659
*807 FILLER_0_1665
*808 FILLER_0_1673
*809 FILLER_0_1679
*810 FILLER_0_1681
*811 FILLER_0_1687
*812 FILLER_0_169
*813 FILLER_0_1693
*814 FILLER_0_1700
*815 FILLER_0_1714
*816 FILLER_0_1722
*817 FILLER_0_1728
*818 FILLER_0_1742
*819 FILLER_0_1750
*820 FILLER_0_1756
*821 FILLER_0_1770
*822 FILLER_0_1782
*823 FILLER_0_1790
*824 FILLER_0_1793
*825 FILLER_0_1805
*826 FILLER_0_181
*827 FILLER_0_1817
*828 FILLER_0_1821
*829 FILLER_0_1833
*830 FILLER_0_1845
*831 FILLER_0_1849
*832 FILLER_0_1861
*833 FILLER_0_1873
*834 FILLER_0_1877
*835 FILLER_0_1889
*836 FILLER_0_1901
*837 FILLER_0_1905
*838 FILLER_0_1917
*839 FILLER_0_1929
*840 FILLER_0_193
*841 FILLER_0_1933
*842 FILLER_0_1945
*843 FILLER_0_1957
*844 FILLER_0_1961
*845 FILLER_0_197
*846 FILLER_0_1973
*847 FILLER_0_1985
*848 FILLER_0_1989
*849 FILLER_0_2001
*850 FILLER_0_2013
*851 FILLER_0_2017
*852 FILLER_0_2029
*853 FILLER_0_2041
*854 FILLER_0_2045
*855 FILLER_0_2057
*856 FILLER_0_2069
*857 FILLER_0_2073
*858 FILLER_0_2085
*859 FILLER_0_209
*860 FILLER_0_2097
*861 FILLER_0_2101
*862 FILLER_0_2113
*863 FILLER_0_2125
*864 FILLER_0_2129
*865 FILLER_0_2141
*866 FILLER_0_2153
*867 FILLER_0_2157
*868 FILLER_0_2169
*869 FILLER_0_2181
*870 FILLER_0_2185
*871 FILLER_0_2197
*872 FILLER_0_2209
*873 FILLER_0_221
*874 FILLER_0_2213
*875 FILLER_0_2225
*876 FILLER_0_2237
*877 FILLER_0_2241
*878 FILLER_0_225
*879 FILLER_0_2253
*880 FILLER_0_2265
*881 FILLER_0_2269
*882 FILLER_0_2281
*883 FILLER_0_2293
*884 FILLER_0_2297
*885 FILLER_0_2309
*886 FILLER_0_2321
*887 FILLER_0_2325
*888 FILLER_0_2337
*889 FILLER_0_2349
*890 FILLER_0_2353
*891 FILLER_0_2365
*892 FILLER_0_237
*893 FILLER_0_2377
*894 FILLER_0_2381
*895 FILLER_0_2393
*896 FILLER_0_2405
*897 FILLER_0_2409
*898 FILLER_0_2421
*899 FILLER_0_2433
*900 FILLER_0_2437
*901 FILLER_0_2449
*902 FILLER_0_2461
*903 FILLER_0_2465
*904 FILLER_0_2477
*905 FILLER_0_2489
*906 FILLER_0_249
*907 FILLER_0_2493
*908 FILLER_0_2505
*909 FILLER_0_2517
*910 FILLER_0_2521
*911 FILLER_0_253
*912 FILLER_0_2533
*913 FILLER_0_2545
*914 FILLER_0_2549
*915 FILLER_0_2561
*916 FILLER_0_2573
*917 FILLER_0_2577
*918 FILLER_0_265
*919 FILLER_0_27
*920 FILLER_0_277
*921 FILLER_0_281
*922 FILLER_0_29
*923 FILLER_0_293
*924 FILLER_0_3
*925 FILLER_0_305
*926 FILLER_0_309
*927 FILLER_0_321
*928 FILLER_0_333
*929 FILLER_0_337
*930 FILLER_0_349
*931 FILLER_0_361
*932 FILLER_0_365
*933 FILLER_0_377
*934 FILLER_0_384
*935 FILLER_0_398
*936 FILLER_0_406
*937 FILLER_0_41
*938 FILLER_0_412
*939 FILLER_0_426
*940 FILLER_0_434
*941 FILLER_0_440
*942 FILLER_0_447
*943 FILLER_0_449
*944 FILLER_0_455
*945 FILLER_0_461
*946 FILLER_0_473
*947 FILLER_0_477
*948 FILLER_0_489
*949 FILLER_0_501
*950 FILLER_0_505
*951 FILLER_0_517
*952 FILLER_0_529
*953 FILLER_0_53
*954 FILLER_0_533
*955 FILLER_0_545
*956 FILLER_0_557
*957 FILLER_0_561
*958 FILLER_0_57
*959 FILLER_0_573
*960 FILLER_0_585
*961 FILLER_0_589
*962 FILLER_0_601
*963 FILLER_0_613
*964 FILLER_0_617
*965 FILLER_0_629
*966 FILLER_0_641
*967 FILLER_0_645
*968 FILLER_0_657
*969 FILLER_0_669
*970 FILLER_0_673
*971 FILLER_0_685
*972 FILLER_0_69
*973 FILLER_0_697
*974 FILLER_0_701
*975 FILLER_0_713
*976 FILLER_0_725
*977 FILLER_0_729
*978 FILLER_0_741
*979 FILLER_0_753
*980 FILLER_0_757
*981 FILLER_0_769
*982 FILLER_0_781
*983 FILLER_0_785
*984 FILLER_0_797
*985 FILLER_0_809
*986 FILLER_0_81
*987 FILLER_0_813
*988 FILLER_0_825
*989 FILLER_0_837
*990 FILLER_0_841
*991 FILLER_0_85
*992 FILLER_0_853
*993 FILLER_0_865
*994 FILLER_0_869
*995 FILLER_0_881
*996 FILLER_0_893
*997 FILLER_0_897
*998 FILLER_0_909
*999 FILLER_0_921
*1000 FILLER_0_925
*1001 FILLER_0_937
*1002 FILLER_0_949
*1003 FILLER_0_953
*1004 FILLER_0_965
*1005 FILLER_0_97
*1006 FILLER_0_977
*1007 FILLER_0_981
*1008 FILLER_0_993
*1009 FILLER_100_1122
*1010 FILLER_100_1134
*1011 FILLER_100_1146
*1012 FILLER_100_1148
*1013 FILLER_100_1160
*1014 FILLER_100_1172
*1015 FILLER_100_1184
*1016 FILLER_100_1196
*1017 FILLER_100_1202
*1018 FILLER_100_1204
*1019 FILLER_100_1216
*1020 FILLER_100_1228
*1021 FILLER_100_1240
*1022 FILLER_100_1252
*1023 FILLER_100_1258
*1024 FILLER_100_1260
*1025 FILLER_100_1272
*1026 FILLER_100_1284
*1027 FILLER_100_1296
*1028 FILLER_100_1308
*1029 FILLER_100_1314
*1030 FILLER_100_1316
*1031 FILLER_100_1328
*1032 FILLER_100_1340
*1033 FILLER_100_1352
*1034 FILLER_100_1364
*1035 FILLER_100_1370
*1036 FILLER_100_1372
*1037 FILLER_100_15
*1038 FILLER_100_2426
*1039 FILLER_100_2438
*1040 FILLER_100_2450
*1041 FILLER_100_2452
*1042 FILLER_100_2464
*1043 FILLER_100_2476
*1044 FILLER_100_2488
*1045 FILLER_100_2500
*1046 FILLER_100_2506
*1047 FILLER_100_2508
*1048 FILLER_100_2520
*1049 FILLER_100_2532
*1050 FILLER_100_2544
*1051 FILLER_100_2556
*1052 FILLER_100_2562
*1053 FILLER_100_2564
*1054 FILLER_100_2576
*1055 FILLER_100_2580
*1056 FILLER_100_27
*1057 FILLER_100_29
*1058 FILLER_100_3
*1059 FILLER_100_41
*1060 FILLER_100_53
*1061 FILLER_100_65
*1062 FILLER_101_1122
*1063 FILLER_101_1134
*1064 FILLER_101_1146
*1065 FILLER_101_1158
*1066 FILLER_101_1170
*1067 FILLER_101_1174
*1068 FILLER_101_1176
*1069 FILLER_101_1188
*1070 FILLER_101_1200
*1071 FILLER_101_1212
*1072 FILLER_101_1224
*1073 FILLER_101_1230
*1074 FILLER_101_1232
*1075 FILLER_101_1244
*1076 FILLER_101_1256
*1077 FILLER_101_1268
*1078 FILLER_101_1280
*1079 FILLER_101_1286
*1080 FILLER_101_1288
*1081 FILLER_101_1300
*1082 FILLER_101_1312
*1083 FILLER_101_1324
*1084 FILLER_101_1336
*1085 FILLER_101_1342
*1086 FILLER_101_1344
*1087 FILLER_101_1356
*1088 FILLER_101_1368
*1089 FILLER_101_15
*1090 FILLER_101_2426
*1091 FILLER_101_2438
*1092 FILLER_101_2450
*1093 FILLER_101_2462
*1094 FILLER_101_2474
*1095 FILLER_101_2478
*1096 FILLER_101_2480
*1097 FILLER_101_2492
*1098 FILLER_101_2504
*1099 FILLER_101_2516
*1100 FILLER_101_2528
*1101 FILLER_101_2534
*1102 FILLER_101_2536
*1103 FILLER_101_2548
*1104 FILLER_101_2560
*1105 FILLER_101_2572
*1106 FILLER_101_2580
*1107 FILLER_101_27
*1108 FILLER_101_3
*1109 FILLER_101_39
*1110 FILLER_101_51
*1111 FILLER_101_55
*1112 FILLER_101_57
*1113 FILLER_101_69
*1114 FILLER_102_1122
*1115 FILLER_102_1134
*1116 FILLER_102_1146
*1117 FILLER_102_1148
*1118 FILLER_102_1160
*1119 FILLER_102_1172
*1120 FILLER_102_1184
*1121 FILLER_102_1196
*1122 FILLER_102_1202
*1123 FILLER_102_1204
*1124 FILLER_102_1216
*1125 FILLER_102_1228
*1126 FILLER_102_1240
*1127 FILLER_102_1252
*1128 FILLER_102_1258
*1129 FILLER_102_1260
*1130 FILLER_102_1272
*1131 FILLER_102_1284
*1132 FILLER_102_1296
*1133 FILLER_102_1308
*1134 FILLER_102_1314
*1135 FILLER_102_1316
*1136 FILLER_102_1328
*1137 FILLER_102_1340
*1138 FILLER_102_1352
*1139 FILLER_102_1364
*1140 FILLER_102_1370
*1141 FILLER_102_1372
*1142 FILLER_102_15
*1143 FILLER_102_2426
*1144 FILLER_102_2438
*1145 FILLER_102_2450
*1146 FILLER_102_2452
*1147 FILLER_102_2464
*1148 FILLER_102_2476
*1149 FILLER_102_2488
*1150 FILLER_102_2500
*1151 FILLER_102_2506
*1152 FILLER_102_2508
*1153 FILLER_102_2520
*1154 FILLER_102_2532
*1155 FILLER_102_2544
*1156 FILLER_102_2556
*1157 FILLER_102_2562
*1158 FILLER_102_2564
*1159 FILLER_102_2576
*1160 FILLER_102_2580
*1161 FILLER_102_27
*1162 FILLER_102_29
*1163 FILLER_102_3
*1164 FILLER_102_41
*1165 FILLER_102_53
*1166 FILLER_102_65
*1167 FILLER_103_1122
*1168 FILLER_103_1134
*1169 FILLER_103_1146
*1170 FILLER_103_1158
*1171 FILLER_103_1170
*1172 FILLER_103_1174
*1173 FILLER_103_1176
*1174 FILLER_103_1188
*1175 FILLER_103_1200
*1176 FILLER_103_1212
*1177 FILLER_103_1224
*1178 FILLER_103_1230
*1179 FILLER_103_1232
*1180 FILLER_103_1244
*1181 FILLER_103_1256
*1182 FILLER_103_1268
*1183 FILLER_103_1280
*1184 FILLER_103_1286
*1185 FILLER_103_1288
*1186 FILLER_103_1300
*1187 FILLER_103_1312
*1188 FILLER_103_1324
*1189 FILLER_103_1336
*1190 FILLER_103_1342
*1191 FILLER_103_1344
*1192 FILLER_103_1356
*1193 FILLER_103_1368
*1194 FILLER_103_15
*1195 FILLER_103_2426
*1196 FILLER_103_2438
*1197 FILLER_103_2450
*1198 FILLER_103_2462
*1199 FILLER_103_2474
*1200 FILLER_103_2478
*1201 FILLER_103_2480
*1202 FILLER_103_2492
*1203 FILLER_103_2504
*1204 FILLER_103_2516
*1205 FILLER_103_2528
*1206 FILLER_103_2534
*1207 FILLER_103_2536
*1208 FILLER_103_2548
*1209 FILLER_103_2560
*1210 FILLER_103_2572
*1211 FILLER_103_2580
*1212 FILLER_103_27
*1213 FILLER_103_3
*1214 FILLER_103_39
*1215 FILLER_103_51
*1216 FILLER_103_55
*1217 FILLER_103_57
*1218 FILLER_103_69
*1219 FILLER_104_1122
*1220 FILLER_104_1134
*1221 FILLER_104_1146
*1222 FILLER_104_1148
*1223 FILLER_104_1160
*1224 FILLER_104_1172
*1225 FILLER_104_1184
*1226 FILLER_104_1196
*1227 FILLER_104_1202
*1228 FILLER_104_1204
*1229 FILLER_104_1216
*1230 FILLER_104_1228
*1231 FILLER_104_1240
*1232 FILLER_104_1252
*1233 FILLER_104_1258
*1234 FILLER_104_1260
*1235 FILLER_104_1272
*1236 FILLER_104_1284
*1237 FILLER_104_1296
*1238 FILLER_104_1308
*1239 FILLER_104_1314
*1240 FILLER_104_1316
*1241 FILLER_104_1328
*1242 FILLER_104_1340
*1243 FILLER_104_1352
*1244 FILLER_104_1364
*1245 FILLER_104_1370
*1246 FILLER_104_1372
*1247 FILLER_104_15
*1248 FILLER_104_2426
*1249 FILLER_104_2438
*1250 FILLER_104_2450
*1251 FILLER_104_2452
*1252 FILLER_104_2464
*1253 FILLER_104_2476
*1254 FILLER_104_2488
*1255 FILLER_104_2500
*1256 FILLER_104_2506
*1257 FILLER_104_2508
*1258 FILLER_104_2520
*1259 FILLER_104_2532
*1260 FILLER_104_2544
*1261 FILLER_104_2556
*1262 FILLER_104_2562
*1263 FILLER_104_2564
*1264 FILLER_104_2576
*1265 FILLER_104_2580
*1266 FILLER_104_27
*1267 FILLER_104_29
*1268 FILLER_104_3
*1269 FILLER_104_41
*1270 FILLER_104_53
*1271 FILLER_104_65
*1272 FILLER_105_1122
*1273 FILLER_105_1134
*1274 FILLER_105_1146
*1275 FILLER_105_1158
*1276 FILLER_105_1170
*1277 FILLER_105_1174
*1278 FILLER_105_1176
*1279 FILLER_105_1188
*1280 FILLER_105_1200
*1281 FILLER_105_1212
*1282 FILLER_105_1224
*1283 FILLER_105_1230
*1284 FILLER_105_1232
*1285 FILLER_105_1244
*1286 FILLER_105_1256
*1287 FILLER_105_1268
*1288 FILLER_105_1280
*1289 FILLER_105_1286
*1290 FILLER_105_1288
*1291 FILLER_105_1300
*1292 FILLER_105_1312
*1293 FILLER_105_1324
*1294 FILLER_105_1336
*1295 FILLER_105_1342
*1296 FILLER_105_1344
*1297 FILLER_105_1356
*1298 FILLER_105_1368
*1299 FILLER_105_15
*1300 FILLER_105_2426
*1301 FILLER_105_2438
*1302 FILLER_105_2450
*1303 FILLER_105_2462
*1304 FILLER_105_2474
*1305 FILLER_105_2478
*1306 FILLER_105_2480
*1307 FILLER_105_2492
*1308 FILLER_105_2504
*1309 FILLER_105_2516
*1310 FILLER_105_2528
*1311 FILLER_105_2534
*1312 FILLER_105_2536
*1313 FILLER_105_2548
*1314 FILLER_105_2560
*1315 FILLER_105_2572
*1316 FILLER_105_2580
*1317 FILLER_105_27
*1318 FILLER_105_3
*1319 FILLER_105_39
*1320 FILLER_105_51
*1321 FILLER_105_55
*1322 FILLER_105_57
*1323 FILLER_105_69
*1324 FILLER_106_1125
*1325 FILLER_106_1137
*1326 FILLER_106_1145
*1327 FILLER_106_1148
*1328 FILLER_106_1160
*1329 FILLER_106_1172
*1330 FILLER_106_1184
*1331 FILLER_106_1196
*1332 FILLER_106_1202
*1333 FILLER_106_1204
*1334 FILLER_106_1216
*1335 FILLER_106_1228
*1336 FILLER_106_1240
*1337 FILLER_106_1252
*1338 FILLER_106_1258
*1339 FILLER_106_1260
*1340 FILLER_106_1272
*1341 FILLER_106_1284
*1342 FILLER_106_1296
*1343 FILLER_106_1308
*1344 FILLER_106_1314
*1345 FILLER_106_1316
*1346 FILLER_106_1328
*1347 FILLER_106_1340
*1348 FILLER_106_1352
*1349 FILLER_106_1364
*1350 FILLER_106_1370
*1351 FILLER_106_1372
*1352 FILLER_106_15
*1353 FILLER_106_2429
*1354 FILLER_106_2441
*1355 FILLER_106_2449
*1356 FILLER_106_2452
*1357 FILLER_106_2464
*1358 FILLER_106_2476
*1359 FILLER_106_2488
*1360 FILLER_106_2500
*1361 FILLER_106_2506
*1362 FILLER_106_2508
*1363 FILLER_106_2520
*1364 FILLER_106_2532
*1365 FILLER_106_2544
*1366 FILLER_106_2556
*1367 FILLER_106_2562
*1368 FILLER_106_2564
*1369 FILLER_106_2576
*1370 FILLER_106_2580
*1371 FILLER_106_27
*1372 FILLER_106_29
*1373 FILLER_106_3
*1374 FILLER_106_41
*1375 FILLER_106_53
*1376 FILLER_106_65
*1377 FILLER_107_1122
*1378 FILLER_107_1134
*1379 FILLER_107_1146
*1380 FILLER_107_1158
*1381 FILLER_107_1170
*1382 FILLER_107_1174
*1383 FILLER_107_1176
*1384 FILLER_107_1188
*1385 FILLER_107_1200
*1386 FILLER_107_1212
*1387 FILLER_107_1224
*1388 FILLER_107_1230
*1389 FILLER_107_1232
*1390 FILLER_107_1244
*1391 FILLER_107_1256
*1392 FILLER_107_1268
*1393 FILLER_107_1280
*1394 FILLER_107_1286
*1395 FILLER_107_1288
*1396 FILLER_107_1300
*1397 FILLER_107_1312
*1398 FILLER_107_1324
*1399 FILLER_107_1336
*1400 FILLER_107_1342
*1401 FILLER_107_1344
*1402 FILLER_107_1356
*1403 FILLER_107_1368
*1404 FILLER_107_15
*1405 FILLER_107_2426
*1406 FILLER_107_2438
*1407 FILLER_107_2450
*1408 FILLER_107_2462
*1409 FILLER_107_2474
*1410 FILLER_107_2478
*1411 FILLER_107_2480
*1412 FILLER_107_2492
*1413 FILLER_107_2504
*1414 FILLER_107_2516
*1415 FILLER_107_2528
*1416 FILLER_107_2534
*1417 FILLER_107_2536
*1418 FILLER_107_2548
*1419 FILLER_107_2560
*1420 FILLER_107_2572
*1421 FILLER_107_2580
*1422 FILLER_107_27
*1423 FILLER_107_3
*1424 FILLER_107_39
*1425 FILLER_107_51
*1426 FILLER_107_55
*1427 FILLER_107_57
*1428 FILLER_107_69
*1429 FILLER_108_1122
*1430 FILLER_108_1134
*1431 FILLER_108_1146
*1432 FILLER_108_1148
*1433 FILLER_108_1160
*1434 FILLER_108_1172
*1435 FILLER_108_1184
*1436 FILLER_108_1196
*1437 FILLER_108_1202
*1438 FILLER_108_1204
*1439 FILLER_108_1216
*1440 FILLER_108_1228
*1441 FILLER_108_1240
*1442 FILLER_108_1252
*1443 FILLER_108_1258
*1444 FILLER_108_1260
*1445 FILLER_108_1272
*1446 FILLER_108_1284
*1447 FILLER_108_1296
*1448 FILLER_108_1308
*1449 FILLER_108_1314
*1450 FILLER_108_1316
*1451 FILLER_108_1328
*1452 FILLER_108_1340
*1453 FILLER_108_1352
*1454 FILLER_108_1364
*1455 FILLER_108_1370
*1456 FILLER_108_1372
*1457 FILLER_108_15
*1458 FILLER_108_2426
*1459 FILLER_108_2438
*1460 FILLER_108_2450
*1461 FILLER_108_2452
*1462 FILLER_108_2464
*1463 FILLER_108_2476
*1464 FILLER_108_2488
*1465 FILLER_108_2500
*1466 FILLER_108_2506
*1467 FILLER_108_2508
*1468 FILLER_108_2520
*1469 FILLER_108_2532
*1470 FILLER_108_2544
*1471 FILLER_108_2556
*1472 FILLER_108_2562
*1473 FILLER_108_2564
*1474 FILLER_108_2576
*1475 FILLER_108_2580
*1476 FILLER_108_27
*1477 FILLER_108_29
*1478 FILLER_108_3
*1479 FILLER_108_41
*1480 FILLER_108_53
*1481 FILLER_108_65
*1482 FILLER_109_1122