*SPEF "ieee 1481-1999"
*DESIGN "counter"
*DATE "15:49:27 Tuesday March 04, 2025"
*VENDOR "The OpenROAD Project"
*PROGRAM "OpenROAD"
*VERSION "edf00dff99f6c40d67a30c0e22a8191c5d2ed9d6"
*DESIGN_FLOW "NAME_SCOPE LOCAL" "PIN_CAP NONE"
*DIVIDER /
*DELIMITER :
*BUS_DELIMITER []
*T_UNIT 1 NS
*C_UNIT 1 PF
*R_UNIT 1 OHM
*L_UNIT 1 HENRY

*NAME_MAP
*1 addr00[0]
*2 addr00[1]
*3 addr00[2]
*4 addr00[3]
*5 addr00[4]
*6 addr00[5]
*7 addr00[6]
*8 addr00[7]
*9 addr01[0]
*10 addr01[1]
*11 addr01[2]
*12 addr01[3]
*13 addr01[4]
*14 addr01[5]
*15 addr01[6]
*16 addr01[7]
*17 clk
*18 csb00
*19 csb01
*20 din00[0]
*21 din00[10]
*22 din00[11]
*23 din00[12]
*24 din00[13]
*25 din00[14]
*26 din00[15]
*27 din00[1]
*28 din00[2]
*29 din00[3]
*30 din00[4]
*31 din00[5]
*32 din00[6]
*33 din00[7]
*34 din00[8]
*35 din00[9]
*36 din01[0]
*37 din01[10]
*38 din01[11]
*39 din01[12]
*40 din01[13]
*41 din01[14]
*42 din01[15]
*43 din01[1]
*44 din01[2]
*45 din01[3]
*46 din01[4]
*47 din01[5]
*48 din01[6]
*49 din01[7]
*50 din01[8]
*51 din01[9]
*52 rst
*53 sine_out[0]
*54 sine_out[10]
*55 sine_out[11]
*56 sine_out[12]
*57 sine_out[13]
*58 sine_out[14]
*59 sine_out[15]
*60 sine_out[1]
*61 sine_out[2]
*62 sine_out[3]
*63 sine_out[4]
*64 sine_out[5]
*65 sine_out[6]
*66 sine_out[7]
*67 sine_out[8]
*68 sine_out[9]
*71 _000_
*72 _001_
*73 _002_
*74 _003_
*75 _004_
*76 _005_
*77 _006_
*78 _007_
*79 _008_
*80 _009_
*81 _010_
*82 _011_
*83 _012_
*84 _013_
*85 _014_
*86 _015_
*87 _016_
*88 _017_
*89 _018_
*90 _019_
*91 _020_
*92 _021_
*93 _022_
*94 _023_
*95 _024_
*96 _025_
*97 _026_
*98 _027_
*99 _028_
*100 _029_
*101 _030_
*102 _031_
*103 _032_
*104 _033_
*105 _034_
*106 _035_
*107 _036_
*108 _037_
*109 _038_
*110 _039_
*111 _040_
*112 _041_
*113 _042_
*114 _043_
*115 _044_
*116 _045_
*117 _046_
*118 _047_
*119 _048_
*120 _049_
*121 _050_
*122 _051_
*123 _052_
*124 _053_
*125 _054_
*126 _055_
*127 _056_
*128 _057_
*129 _058_
*130 clknet_0_clk
*131 clknet_2_0__leaf_clk
*132 clknet_2_1__leaf_clk
*133 clknet_2_2__leaf_clk
*134 clknet_2_3__leaf_clk
*135 net1
*136 net10
*137 net100
*138 net101
*139 net102
*140 net103
*141 net104
*142 net105
*143 net106
*144 net107
*145 net108
*146 net109
*147 net11
*148 net110
*149 net111
*150 net112
*151 net113
*152 net114
*153 net115
*154 net116
*155 net117
*156 net118
*157 net119
*158 net12
*159 net120
*160 net13
*161 net14
*162 net15
*163 net16
*164 net17
*165 net18
*166 net19
*167 net2
*168 net20
*169 net21
*170 net22
*171 net23
*172 net24
*173 net25
*174 net26
*175 net27
*176 net28
*177 net29
*178 net3
*179 net30
*180 net31
*181 net32
*182 net33
*183 net34
*184 net35
*185 net36
*186 net37
*187 net38
*188 net39
*189 net4
*190 net40
*191 net41
*192 net42
*193 net43
*194 net44
*195 net45
*196 net46
*197 net47
*198 net48
*199 net49
*200 net5
*201 net50
*202 net51
*203 net52
*204 net53
*205 net54
*206 net55
*207 net56
*208 net57
*209 net58
*210 net59
*211 net6
*212 net60
*213 net61
*214 net62
*215 net63
*216 net64
*217 net65
*218 net66
*219 net67
*220 net68
*221 net69
*222 net7
*223 net70
*224 net71
*225 net72
*226 net73
*227 net74
*228 net75
*229 net76
*230 net77
*231 net78
*232 net79
*233 net8
*234 net80
*235 net81
*236 net82
*237 net83
*238 net84
*239 net85
*240 net86
*241 net87
*242 net88
*243 net89
*244 net9
*245 net90
*246 net91
*247 net92
*248 net93
*249 net94
*250 net95
*251 net96
*252 net97
*253 net98
*254 net99
*255 sine_out_temp0\[0\]
*256 sine_out_temp0\[10\]
*257 sine_out_temp0\[11\]
*258 sine_out_temp0\[12\]
*259 sine_out_temp0\[13\]
*260 sine_out_temp0\[14\]
*261 sine_out_temp0\[15\]
*262 sine_out_temp0\[1\]
*263 sine_out_temp0\[2\]
*264 sine_out_temp0\[3\]
*265 sine_out_temp0\[4\]
*266 sine_out_temp0\[5\]
*267 sine_out_temp0\[6\]
*268 sine_out_temp0\[7\]
*269 sine_out_temp0\[8\]
*270 sine_out_temp0\[9\]
*271 sine_out_temp1\[0\]
*272 sine_out_temp1\[10\]
*273 sine_out_temp1\[11\]
*274 sine_out_temp1\[12\]
*275 sine_out_temp1\[13\]
*276 sine_out_temp1\[14\]
*277 sine_out_temp1\[15\]
*278 sine_out_temp1\[1\]
*279 sine_out_temp1\[2\]
*280 sine_out_temp1\[3\]
*281 sine_out_temp1\[4\]
*282 sine_out_temp1\[5\]
*283 sine_out_temp1\[6\]
*284 sine_out_temp1\[7\]
*285 sine_out_temp1\[8\]
*286 sine_out_temp1\[9\]
*287 tcout\[0\]
*288 tcout\[1\]
*289 tcout\[2\]
*290 tcout\[3\]
*291 tcout\[4\]
*292 tcout\[5\]
*293 tcout\[6\]
*294 tcout\[7\]
*295 tcout\[8\]
*296 ANTENNA__063__A0
*297 ANTENNA__063__A1
*298 ANTENNA__063__S
*299 ANTENNA__064__A0
*300 ANTENNA__064__A1
*301 ANTENNA__064__S
*302 ANTENNA__065__A0
*303 ANTENNA__065__A1
*304 ANTENNA__065__S
*305 ANTENNA__066__A0
*306 ANTENNA__066__A1
*307 ANTENNA__066__S
*308 ANTENNA__067__A0
*309 ANTENNA__067__A1
*310 ANTENNA__067__S
*311 ANTENNA__068__A0
*312 ANTENNA__068__A1
*313 ANTENNA__068__S
*314 ANTENNA__069__A0
*315 ANTENNA__069__A1
*316 ANTENNA__069__S
*317 ANTENNA__070__A0
*318 ANTENNA__070__A1
*319 ANTENNA__070__S
*320 ANTENNA__070__X
*321 ANTENNA__071__A0
*322 ANTENNA__071__A1
*323 ANTENNA__071__S
*324 ANTENNA__071__X
*325 ANTENNA__072__A0
*326 ANTENNA__072__A1
*327 ANTENNA__072__S
*328 ANTENNA__072__X
*329 ANTENNA__073__A0
*330 ANTENNA__073__A1
*331 ANTENNA__073__S
*332 ANTENNA__074__A0
*333 ANTENNA__074__A1
*334 ANTENNA__074__S
*335 ANTENNA__075__A0
*336 ANTENNA__075__A1
*337 ANTENNA__075__S
*338 ANTENNA__076__A0
*339 ANTENNA__076__A1
*340 ANTENNA__076__S
*341 ANTENNA__077__A0
*342 ANTENNA__077__A1
*343 ANTENNA__077__S
*344 ANTENNA__078__A0
*345 ANTENNA__078__A1
*346 ANTENNA__078__S
*347 ANTENNA__095__A
*348 ANTENNA__103__A
*349 ANTENNA__111__A
*350 ANTENNA__112__A
*351 ANTENNA__113__A
*352 ANTENNA__114__A
*353 ANTENNA__115__A
*354 ANTENNA__116__A
*355 ANTENNA__117__A
*356 ANTENNA__118__A
*357 ANTENNA__119__A
*358 ANTENNA__120__CLK
*359 ANTENNA__120__D
*360 ANTENNA__120__Q
*361 ANTENNA__121__CLK
*362 ANTENNA__121__D
*363 ANTENNA__121__Q
*364 ANTENNA__122__CLK
*365 ANTENNA__122__Q
*366 ANTENNA__123__CLK
*367 ANTENNA__123__Q
*368 ANTENNA__124__CLK
*369 ANTENNA__124__Q
*370 ANTENNA__125__CLK
*371 ANTENNA__126__CLK
*372 ANTENNA__127__CLK
*373 ANTENNA__128__CLK
*374 ANTENNA__129__CLK
*375 ANTENNA__130__CLK
*376 ANTENNA__131__CLK
*377 ANTENNA__132__CLK
*378 ANTENNA__133__CLK
*379 ANTENNA__134__CLK
*380 ANTENNA__135__CLK
*381 ANTENNA__136__CLK
*382 ANTENNA__137__CLK
*383 ANTENNA__137__Q
*384 ANTENNA__138__CLK
*385 ANTENNA__138__Q
*386 ANTENNA__139__CLK
*387 ANTENNA__139__Q
*388 ANTENNA__140__CLK
*389 ANTENNA__140__Q
*390 ANTENNA__141__CLK
*391 ANTENNA__141__Q
*392 ANTENNA__142__CLK
*393 ANTENNA__142__Q
*394 ANTENNA__143__CLK
*395 ANTENNA__143__Q
*396 ANTENNA__144__CLK
*397 ANTENNA__144__D
*398 ANTENNA__144__Q
*399 ANTENNA_clkbuf_0_clk_A
*400 ANTENNA_clkbuf_0_clk_X
*401 ANTENNA_clkbuf_2_0__f_clk_A
*402 ANTENNA_clkbuf_2_0__f_clk_X
*403 ANTENNA_clkbuf_2_1__f_clk_A
*404 ANTENNA_clkbuf_2_1__f_clk_X
*405 ANTENNA_clkbuf_2_2__f_clk_A
*406 ANTENNA_clkbuf_2_2__f_clk_X
*407 ANTENNA_clkbuf_2_3__f_clk_A
*408 ANTENNA_clkbuf_2_3__f_clk_X
*409 ANTENNA_clkload0_A
*410 ANTENNA_clkload1_A
*411 ANTENNA_clkload2_A
*412 ANTENNA_fanout109_A
*413 ANTENNA_fanout110_A
*414 ANTENNA_fanout111_A
*415 ANTENNA_fanout111_X
*416 ANTENNA_fanout112_A
*417 ANTENNA_fanout112_X
*418 ANTENNA_fanout84_X
*419 ANTENNA_fanout85_X
*420 ANTENNA_input10_A
*421 ANTENNA_input10_X
*422 ANTENNA_input11_A
*423 ANTENNA_input12_A
*424 ANTENNA_input13_A
*425 ANTENNA_input14_A
*426 ANTENNA_input15_A
*427 ANTENNA_input16_A
*428 ANTENNA_input17_A
*429 ANTENNA_input17_X
*430 ANTENNA_input18_A
*431 ANTENNA_input19_A
*432 ANTENNA_input1_A
*433 ANTENNA_input1_X
*434 ANTENNA_input20_A
*435 ANTENNA_input21_A
*436 ANTENNA_input22_A
*437 ANTENNA_input23_A
*438 ANTENNA_input24_A
*439 ANTENNA_input25_A
*440 ANTENNA_input26_A
*441 ANTENNA_input27_A
*442 ANTENNA_input28_A
*443 ANTENNA_input29_A
*444 ANTENNA_input2_A
*445 ANTENNA_input2_X
*446 ANTENNA_input30_A
*447 ANTENNA_input31_A
*448 ANTENNA_input32_A
*449 ANTENNA_input33_A
*450 ANTENNA_input34_A
*451 ANTENNA_input35_A
*452 ANTENNA_input35_X
*453 ANTENNA_input36_A
*454 ANTENNA_input36_X
*455 ANTENNA_input37_A
*456 ANTENNA_input37_X
*457 ANTENNA_input38_A
*458 ANTENNA_input38_X
*459 ANTENNA_input39_A
*460 ANTENNA_input39_X
*461 ANTENNA_input3_A
*462 ANTENNA_input3_X
*463 ANTENNA_input40_A
*464 ANTENNA_input40_X
*465 ANTENNA_input41_A
*466 ANTENNA_input41_X
*467 ANTENNA_input42_A
*468 ANTENNA_input42_X
*469 ANTENNA_input43_A
*470 ANTENNA_input43_X
*471 ANTENNA_input44_A
*472 ANTENNA_input44_X
*473 ANTENNA_input45_A
*474 ANTENNA_input45_X
*475 ANTENNA_input46_A
*476 ANTENNA_input46_X
*477 ANTENNA_input47_A
*478 ANTENNA_input47_X
*479 ANTENNA_input48_A
*480 ANTENNA_input48_X
*481 ANTENNA_input49_A
*482 ANTENNA_input49_X
*483 ANTENNA_input4_A
*484 ANTENNA_input4_X
*485 ANTENNA_input50_A
*486 ANTENNA_input50_X
*487 ANTENNA_input51_A
*488 ANTENNA_input51_X
*489 ANTENNA_input5_A
*490 ANTENNA_input5_X
*491 ANTENNA_input6_A
*492 ANTENNA_input7_A
*493 ANTENNA_input8_A
*494 ANTENNA_input9_A
*495 ANTENNA_input9_X
*496 ANTENNA_load_slew100_X
*497 ANTENNA_load_slew102_X
*498 ANTENNA_load_slew105_X
*499 ANTENNA_load_slew86_X
*500 ANTENNA_load_slew88_X
*501 ANTENNA_load_slew91_X
*502 ANTENNA_load_slew94_X
*503 ANTENNA_load_slew96_X
*504 ANTENNA_load_slew97_X
*505 ANTENNA_load_slew98_X
*506 ANTENNA_load_slew99_X
*507 ANTENNA_mem_i0_addr0\[0\]
*508 ANTENNA_mem_i0_addr0\[1\]
*509 ANTENNA_mem_i0_addr0\[2\]
*510 ANTENNA_mem_i0_addr0\[3\]
*511 ANTENNA_mem_i0_addr0\[4\]
*512 ANTENNA_mem_i0_addr1\[2\]
*513 ANTENNA_mem_i0_addr1\[3\]
*514 ANTENNA_mem_i0_addr1\[4\]
*515 ANTENNA_mem_i0_addr1\[5\]
*516 ANTENNA_mem_i0_addr1\[6\]
*517 ANTENNA_mem_i0_addr1\[7\]
*518 ANTENNA_mem_i0_clk0
*519 ANTENNA_mem_i0_clk1
*520 ANTENNA_mem_i0_csb0
*521 ANTENNA_mem_i0_dout1\[0\]
*522 ANTENNA_mem_i0_dout1\[10\]
*523 ANTENNA_mem_i0_dout1\[11\]
*524 ANTENNA_mem_i0_dout1\[12\]
*525 ANTENNA_mem_i0_dout1\[13\]
*526 ANTENNA_mem_i0_dout1\[14\]
*527 ANTENNA_mem_i0_dout1\[15\]
*528 ANTENNA_mem_i0_dout1\[1\]
*529 ANTENNA_mem_i0_dout1\[2\]
*530 ANTENNA_mem_i0_dout1\[3\]
*531 ANTENNA_mem_i0_dout1\[4\]
*532 ANTENNA_mem_i0_dout1\[5\]
*533 ANTENNA_mem_i0_dout1\[6\]
*534 ANTENNA_mem_i0_dout1\[7\]
*535 ANTENNA_mem_i0_dout1\[8\]
*536 ANTENNA_mem_i0_dout1\[9\]
*537 ANTENNA_mem_i1_addr0\[0\]
*538 ANTENNA_mem_i1_addr0\[1\]
*539 ANTENNA_mem_i1_addr1\[0\]
*540 ANTENNA_mem_i1_addr1\[1\]
*541 ANTENNA_mem_i1_addr1\[2\]
*542 ANTENNA_mem_i1_addr1\[3\]
*543 ANTENNA_mem_i1_addr1\[4\]
*544 ANTENNA_mem_i1_clk0
*545 ANTENNA_mem_i1_clk1
*546 ANTENNA_mem_i1_din0\[0\]
*547 ANTENNA_mem_i1_din0\[10\]
*548 ANTENNA_mem_i1_din0\[11\]
*549 ANTENNA_mem_i1_din0\[12\]
*550 ANTENNA_mem_i1_din0\[13\]
*551 ANTENNA_mem_i1_din0\[14\]
*552 ANTENNA_mem_i1_din0\[15\]
*553 ANTENNA_mem_i1_din0\[1\]
*554 ANTENNA_mem_i1_din0\[2\]
*555 ANTENNA_mem_i1_din0\[3\]
*556 ANTENNA_mem_i1_din0\[4\]
*557 ANTENNA_mem_i1_din0\[5\]
*558 ANTENNA_mem_i1_din0\[6\]
*559 ANTENNA_mem_i1_din0\[7\]
*560 ANTENNA_mem_i1_din0\[8\]
*561 ANTENNA_mem_i1_din0\[9\]
*562 ANTENNA_output52_A
*563 ANTENNA_output53_A
*564 ANTENNA_output54_A
*565 ANTENNA_output55_A
*566 ANTENNA_output59_A
*567 ANTENNA_output60_A
*568 ANTENNA_output61_A
*569 ANTENNA_output62_A
*570 ANTENNA_output63_A
*571 ANTENNA_output64_A
*572 ANTENNA_output65_A
*573 ANTENNA_output66_A
*574 ANTENNA_output67_A
*575 ANTENNA_wire68_X
*576 ANTENNA_wire69_X
*577 ANTENNA_wire70_X
*578 ANTENNA_wire71_X
*579 ANTENNA_wire72_X
*580 ANTENNA_wire73_X
*581 ANTENNA_wire74_X
*582 ANTENNA_wire75_X
*583 ANTENNA_wire76_X
*584 ANTENNA_wire77_X
*585 ANTENNA_wire78_X
*586 ANTENNA_wire79_X
*587 ANTENNA_wire80_X
*588 ANTENNA_wire81_X
*589 ANTENNA_wire82_X
*590 ANTENNA_wire83_X
*591 FILLER_0_1005
*592 FILLER_0_1009
*593 FILLER_0_1021
*594 FILLER_0_1033
*595 FILLER_0_1037
*596 FILLER_0_1049
*597 FILLER_0_1061
*598 FILLER_0_1065
*599 FILLER_0_1077
*600 FILLER_0_1089
*601 FILLER_0_109
*602 FILLER_0_1093
*603 FILLER_0_1105
*604 FILLER_0_1117
*605 FILLER_0_1121
*606 FILLER_0_113
*607 FILLER_0_1133
*608 FILLER_0_1145
*609 FILLER_0_1149
*610 FILLER_0_1161
*611 FILLER_0_1167
*612 FILLER_0_125
*613 FILLER_0_137
*614 FILLER_0_141
*615 FILLER_0_153
*616 FILLER_0_165
*617 FILLER_0_169
*618 FILLER_0_181
*619 FILLER_0_193
*620 FILLER_0_197
*621 FILLER_0_209
*622 FILLER_0_221
*623 FILLER_0_225
*624 FILLER_0_237
*625 FILLER_0_249
*626 FILLER_0_253
*627 FILLER_0_265
*628 FILLER_0_27
*629 FILLER_0_272
*630 FILLER_0_286
*631 FILLER_0_29
*632 FILLER_0_294
*633 FILLER_0_300
*634 FILLER_0_307
*635 FILLER_0_309
*636 FILLER_0_315
*637 FILLER_0_321
*638 FILLER_0_329
*639 FILLER_0_335
*640 FILLER_0_337
*641 FILLER_0_343
*642 FILLER_0_349
*643 FILLER_0_357
*644 FILLER_0_363
*645 FILLER_0_365
*646 FILLER_0_371
*647 FILLER_0_377
*648 FILLER_0_384
*649 FILLER_0_398
*650 FILLER_0_406
*651 FILLER_0_41
*652 FILLER_0_412
*653 FILLER_0_426
*654 FILLER_0_434
*655 FILLER_0_440
*656 FILLER_0_447
*657 FILLER_0_449
*658 FILLER_0_455
*659 FILLER_0_461
*660 FILLER_0_473
*661 FILLER_0_477
*662 FILLER_0_489
*663 FILLER_0_501
*664 FILLER_0_505
*665 FILLER_0_517
*666 FILLER_0_529
*667 FILLER_0_53
*668 FILLER_0_533
*669 FILLER_0_545
*670 FILLER_0_557
*671 FILLER_0_561
*672 FILLER_0_57
*673 FILLER_0_573
*674 FILLER_0_585
*675 FILLER_0_589
*676 FILLER_0_601
*677 FILLER_0_613
*678 FILLER_0_617
*679 FILLER_0_629
*680 FILLER_0_641
*681 FILLER_0_645
*682 FILLER_0_657
*683 FILLER_0_669
*684 FILLER_0_673
*685 FILLER_0_685
*686 FILLER_0_69
*687 FILLER_0_697
*688 FILLER_0_701
*689 FILLER_0_713
*690 FILLER_0_725
*691 FILLER_0_729
*692 FILLER_0_741
*693 FILLER_0_753
*694 FILLER_0_757
*695 FILLER_0_769
*696 FILLER_0_781
*697 FILLER_0_785
*698 FILLER_0_797
*699 FILLER_0_809
*700 FILLER_0_81
*701 FILLER_0_813
*702 FILLER_0_825
*703 FILLER_0_837
*704 FILLER_0_841
*705 FILLER_0_85
*706 FILLER_0_853
*707 FILLER_0_865
*708 FILLER_0_869
*709 FILLER_0_881
*710 FILLER_0_893
*711 FILLER_0_897
*712 FILLER_0_909
*713 FILLER_0_921
*714 FILLER_0_925
*715 FILLER_0_937
*716 FILLER_0_949
*717 FILLER_0_953
*718 FILLER_0_965
*719 FILLER_0_97
*720 FILLER_0_977
*721 FILLER_0_981
*722 FILLER_0_993
*723 FILLER_100_1122
*724 FILLER_100_1134
*725 FILLER_100_1146
*726 FILLER_100_1148
*727 FILLER_100_1160
*728 FILLER_100_15
*729 FILLER_100_27
*730 FILLER_100_29
*731 FILLER_100_3
*732 FILLER_100_41
*733 FILLER_100_53
*734 FILLER_100_65
*735 FILLER_101_1122
*736 FILLER_101_1134
*737 FILLER_101_1146
*738 FILLER_101_1158
*739 FILLER_101_1166
*740 FILLER_101_15
*741 FILLER_101_27
*742 FILLER_101_3
*743 FILLER_101_39
*744 FILLER_101_51
*745 FILLER_101_55
*746 FILLER_101_57
*747 FILLER_101_65
*748 FILLER_102_1122
*749 FILLER_102_1134
*750 FILLER_102_1146
*751 FILLER_102_1148
*752 FILLER_102_1160
*753 FILLER_102_15
*754 FILLER_102_27
*755 FILLER_102_29
*756 FILLER_102_3
*757 FILLER_102_41
*758 FILLER_102_49
*759 FILLER_103_1122
*760 FILLER_103_1134
*761 FILLER_103_1146
*762 FILLER_103_1158
*763 FILLER_103_1166
*764 FILLER_103_15
*765 FILLER_103_27
*766 FILLER_103_3
*767 FILLER_103_39
*768 FILLER_103_51
*769 FILLER_103_55
*770 FILLER_103_57
*771 FILLER_104_1122
*772 FILLER_104_1134
*773 FILLER_104_1146
*774 FILLER_104_1148
*775 FILLER_104_1160
*776 FILLER_104_15
*777 FILLER_104_27
*778 FILLER_104_29
*779 FILLER_104_3
*780 FILLER_104_41
*781 FILLER_104_53
*782 FILLER_104_65
*783 FILLER_105_1122
*784 FILLER_105_1134
*785 FILLER_105_1146
*786 FILLER_105_1158
*787 FILLER_105_1166
*788 FILLER_105_15
*789 FILLER_105_27
*790 FILLER_105_3
*791 FILLER_105_39
*792 FILLER_105_51
*793 FILLER_105_55
*794 FILLER_105_57
*795 FILLER_105_69
*796 FILLER_106_1125
*797 FILLER_106_1137
*798 FILLER_106_1145
*799 FILLER_106_1148
*800 FILLER_106_1160
*801 FILLER_106_15
*802 FILLER_106_27
*803 FILLER_106_29
*804 FILLER_106_3
*805 FILLER_106_41
*806 FILLER_106_53
*807 FILLER_106_65
*808 FILLER_107_1122
*809 FILLER_107_1134
*810 FILLER_107_1146
*811 FILLER_107_1158
*812 FILLER_107_1166
*813 FILLER_107_15
*814 FILLER_107_27
*815 FILLER_107_3
*816 FILLER_107_39
*817 FILLER_107_51
*818 FILLER_107_55
*819 FILLER_107_57
*820 FILLER_107_69
*821 FILLER_108_1122
*822 FILLER_108_1134
*823 FILLER_108_1146
*824 FILLER_108_1148
*825 FILLER_108_1160
*826 FILLER_108_15
*827 FILLER_108_27
*828 FILLER_108_29
*829 FILLER_108_3
*830 FILLER_108_41
*831 FILLER_108_53
*832 FILLER_108_65
*833 FILLER_109_1122
*834 FILLER_109_1134
*835 FILLER_109_1146
*836 FILLER_109_1158
*837 FILLER_109_1166
*838 FILLER_109_15
*839 FILLER_109_27
*840 FILLER_109_3
*841 FILLER_109_39
*842 FILLER_109_51
*843 FILLER_109_55
*844 FILLER_109_57
*845 FILLER_109_69
*846 FILLER_10_1122
*847 FILLER_10_1134
*848 FILLER_10_1146
*849 FILLER_10_1148
*850 FILLER_10_1160
*851 FILLER_10_15
*852 FILLER_10_27
*853 FILLER_10_29
*854 FILLER_10_3
*855 FILLER_10_41
*856 FILLER_10_53
*857 FILLER_10_65
*858 FILLER_110_1122
*859 FILLER_110_1134
*860 FILLER_110_1146
*861 FILLER_110_1148
*862 FILLER_110_1160
*863 FILLER_110_15
*864 FILLER_110_27
*865 FILLER_110_29
*866 FILLER_110_3
*867 FILLER_110_41
*868 FILLER_110_53
*869 FILLER_110_65
*870 FILLER_111_1122
*871 FILLER_111_1134
*872 FILLER_111_1146
*873 FILLER_111_1158
*874 FILLER_111_1166
*875 FILLER_111_15
*876 FILLER_111_27
*877 FILLER_111_3
*878 FILLER_111_39
*879 FILLER_111_51
*880 FILLER_111_55
*881 FILLER_111_57
*882 FILLER_111_69
*883 FILLER_112_1122
*884 FILLER_112_1134
*885 FILLER_112_1146
*886 FILLER_112_1148
*887 FILLER_112_1160
*888 FILLER_112_15
*889 FILLER_112_27
*890 FILLER_112_29
*891 FILLER_112_3
*892 FILLER_112_41
*893 FILLER_112_53
*894 FILLER_112_65
*895 FILLER_113_1122
*896 FILLER_113_1134
*897 FILLER_113_1146
*898 FILLER_113_1158
*899 FILLER_113_1166
*900 FILLER_113_15
*901 FILLER_113_27
*902 FILLER_113_3
*903 FILLER_113_39
*904 FILLER_113_51
*905 FILLER_113_55
*906 FILLER_113_57
*907 FILLER_113_69
*908 FILLER_114_1122
*909 FILLER_114_1134
*910 FILLER_114_1146
*911 FILLER_114_1148
*912 FILLER_114_1160
*913 FILLER_114_15
*914 FILLER_114_27
*915 FILLER_114_29
*916 FILLER_114_3
*917 FILLER_114_41
*918 FILLER_114_53
*919 FILLER_114_65
*920 FILLER_115_1122
*921 FILLER_115_1134
*922 FILLER_115_1146
*923 FILLER_115_1158
*924 FILLER_115_1166
*925 FILLER_115_15
*926 FILLER_115_27
*927 FILLER_115_3
*928 FILLER_115_39
*929 FILLER_115_51
*930 FILLER_115_55
*931 FILLER_115_57
*932 FILLER_115_69
*933 FILLER_116_1122
*934 FILLER_116_1134
*935 FILLER_116_1146
*936 FILLER_116_1148
*937 FILLER_116_1160
*938 FILLER_116_15
*939 FILLER_116_27
*940 FILLER_116_29
*941 FILLER_116_3
*942 FILLER_116_41
*943 FILLER_116_53
*944 FILLER_116_65
*945 FILLER_117_1011
*946 FILLER_117_1023
*947 FILLER_117_1029
*948 FILLER_117_1032
*949 FILLER_117_1037
*950 FILLER_117_1049
*951 FILLER_117_1061
*952 FILLER_117_1065
*953 FILLER_117_1077
*954 FILLER_117_1089
*955 FILLER_117_109
*956 FILLER_117_1093
*957 FILLER_117_1105
*958 FILLER_117_1117
*959 FILLER_117_1121
*960 FILLER_117_113
*961 FILLER_117_1133
*962 FILLER_117_1145
*963 FILLER_117_1149
*964 FILLER_117_1161
*965 FILLER_117_1167
*966 FILLER_117_125
*967 FILLER_117_137
*968 FILLER_117_141
*969 FILLER_117_15
*970 FILLER_117_153
*971 FILLER_117_165
*972 FILLER_117_169
*973 FILLER_117_181
*974 FILLER_117_193
*975 FILLER_117_197
*976 FILLER_117_209
*977 FILLER_117_221
*978 FILLER_117_225
*979 FILLER_117_237
*980 FILLER_117_249
*981 FILLER_117_253
*982 FILLER_117_265
*983 FILLER_117_27
*984 FILLER_117_277
*985 FILLER_117_281
*986 FILLER_117_29
*987 FILLER_117_293
*988 FILLER_117_3
*989 FILLER_117_305
*990 FILLER_117_309
*991 FILLER_117_321
*992 FILLER_117_333
*993 FILLER_117_337
*994 FILLER_117_349
*995 FILLER_117_361
*996 FILLER_117_365
*997 FILLER_117_377
*998 FILLER_117_382
*999 FILLER_117_390
*1000 FILLER_117_393
*1001 FILLER_117_405
*1002 FILLER_117_41
*1003 FILLER_117_410
*1004 FILLER_117_418
*1005 FILLER_117_421
*1006 FILLER_117_433
*1007 FILLER_117_437
*1008 FILLER_117_445
*1009 FILLER_117_449
*1010 FILLER_117_461
*1011 FILLER_117_464
*1012 FILLER_117_477
*1013 FILLER_117_491
*1014 FILLER_117_503
*1015 FILLER_117_505
*1016 FILLER_117_513
*1017 FILLER_117_518
*1018 FILLER_117_53
*1019 FILLER_117_530
*1020 FILLER_117_533
*1021 FILLER_117_541
*1022 FILLER_117_545
*1023 FILLER_117_557
*1024 FILLER_117_561
*1025 FILLER_117_569
*1026 FILLER_117_57
*1027 FILLER_117_572
*1028 FILLER_117_584
*1029 FILLER_117_589
*1030 FILLER_117_597
*1031 FILLER_117_600
*1032 FILLER_117_612
*1033 FILLER_117_617
*1034 FILLER_117_627
*1035 FILLER_117_639
*1036 FILLER_117_643
*1037 FILLER_117_645
*1038 FILLER_117_651
*1039 FILLER_117_654
*1040 FILLER_117_666
*1041 FILLER_117_673
*1042 FILLER_117_681
*1043 FILLER_117_69
*1044 FILLER_117_693
*1045 FILLER_117_699
*1046 FILLER_117_701
*1047 FILLER_117_705
*1048 FILLER_117_708
*1049 FILLER_117_720
*1050 FILLER_117_729
*1051 FILLER_117_735
*1052 FILLER_117_747
*1053 FILLER_117_755
*1054 FILLER_117_757
*1055 FILLER_117_762
*1056 FILLER_117_774
*1057 FILLER_117_782
*1058 FILLER_117_785
*1059 FILLER_117_789
*1060 FILLER_117_801
*1061 FILLER_117_809
*1062 FILLER_117_81
*1063 FILLER_117_813
*1064 FILLER_117_825
*1065 FILLER_117_837
*1066 FILLER_117_841
*1067 FILLER_117_85
*1068 FILLER_117_853
*1069 FILLER_117_865
*1070 FILLER_117_869
*1071 FILLER_117_881
*1072 FILLER_117_893
*1073 FILLER_117_897
*1074 FILLER_117_903
*1075 FILLER_117_946
*1076 FILLER_117_960
*1077 FILLER_117_97
*1078 FILLER_117_987
*1079 FILLER_118_1007
*1080 FILLER_118_1019
*1081 FILLER_118_1031
*1082 FILLER_118_1035
*1083 FILLER_118_1037
*1084 FILLER_118_1049
*1085 FILLER_118_1061
*1086 FILLER_118_1073
*1087 FILLER_118_1085
*1088 FILLER_118_109
*1089 FILLER_118_1091
*1090 FILLER_118_1093
*1091 FILLER_118_1105
*1092 FILLER_118_1117
*1093 FILLER_118_1129
*1094 FILLER_118_1141
*1095 FILLER_118_1147
*1096 FILLER_118_1149
*1097 FILLER_118_1161
*1098 FILLER_118_1167
*1099 FILLER_118_121
*1100 FILLER_118_133
*1101 FILLER_118_139
*1102 FILLER_118_141
*1103 FILLER_118_15
*1104 FILLER_118_153
*1105 FILLER_118_165
*1106 FILLER_118_177
*1107 FILLER_118_189
*1108 FILLER_118_195
*1109 FILLER_118_197
*1110 FILLER_118_209
*1111 FILLER_118_221
*1112 FILLER_118_233
*1113 FILLER_118_245
*1114 FILLER_118_251
*1115 FILLER_118_253
*1116 FILLER_118_265
*1117 FILLER_118_27
*1118 FILLER_118_277
*1119 FILLER_118_289
*1120 FILLER_118_29
*1121 FILLER_118_3
*1122 FILLER_118_301
*1123 FILLER_118_307
*1124 FILLER_118_309
*1125 FILLER_118_321
*1126 FILLER_118_333
*1127 FILLER_118_345
*1128 FILLER_118_357
*1129 FILLER_118_363
*1130 FILLER_118_365
*1131 FILLER_118_377
*1132 FILLER_118_389
*1133 FILLER_118_401
*1134 FILLER_118_41
*1135 FILLER_118_413
*1136 FILLER_118_419
*1137 FILLER_118_421
*1138 FILLER_118_433
*1139 FILLER_118_445
*1140 FILLER_118_457
*1141 FILLER_118_469
*1142 FILLER_118_475
*1143 FILLER_118_477
*1144 FILLER_118_489
*1145 FILLER_118_501
*1146 FILLER_118_513
*1147 FILLER_118_525
*1148 FILLER_118_53
*1149 FILLER_118_531
*1150 FILLER_118_533
*1151 FILLER_118_545
*1152 FILLER_118_557
*1153 FILLER_118_569
*1154 FILLER_118_581
*1155 FILLER_118_587
*1156 FILLER_118_589
*1157 FILLER_118_601
*1158 FILLER_118_613
*1159 FILLER_118_625
*1160 FILLER_118_637
*1161 FILLER_118_643
*1162 FILLER_118_645
*1163 FILLER_118_65
*1164 FILLER_118_657
*1165 FILLER_118_669
*1166 FILLER_118_681
*1167 FILLER_118_693
*1168 FILLER_118_699
*1169 FILLER_118_701
*1170 FILLER_118_713
*1171 FILLER_118_725
*1172 FILLER_118_737
*1173 FILLER_118_749
*1174 FILLER_118_755
*1175 FILLER_118_757
*1176 FILLER_118_769
*1177 FILLER_118_77
*1178 FILLER_118_781
*1179 FILLER_118_793
*1180 FILLER_118_805
*1181 FILLER_118_811
*1182 FILLER_118_813
*1183 FILLER_118_825
*1184 FILLER_118_83
*1185 FILLER_118_837
*1186 FILLER_118_849
*1187 FILLER_118_85
*1188 FILLER_118_861
*1189 FILLER_118_867
*1190 FILLER_118_869
*1191 FILLER_118_881
*1192 FILLER_118_893
*1193 FILLER_118_905
*1194 FILLER_118_917
*1195 FILLER_118_923
*1196 FILLER_118_953
*1197 FILLER_118_97
*1198 FILLER_118_979
*1199 FILLER_118_991
*1200 FILLER_119_1001
*1201 FILLER_119_1007
*1202 FILLER_119_1009
*1203 FILLER_119_1021
*1204 FILLER_119_1033
*1205 FILLER_119_1045
*1206 FILLER_119_105
*1207 FILLER_119_1057
*1208 FILLER_119_1063
*1209 FILLER_119_1065
*1210 FILLER_119_1077
*1211 FILLER_119_1089
*1212 FILLER_119_1101
*1213 FILLER_119_111
*1214 FILLER_119_1113
*1215 FILLER_119_1119
*1216 FILLER_119_1121
*1217 FILLER_119_113
*1218 FILLER_119_1133
*1219 FILLER_119_1145
*1220 FILLER_119_1157
*1221 FILLER_119_1165
*1222 FILLER_119_125
*1223 FILLER_119_137
*1224 FILLER_119_149
*1225 FILLER_119_15
*1226 FILLER_119_161
*1227 FILLER_119_167
*1228 FILLER_119_169
*1229 FILLER_119_181
*1230 FILLER_119_193
*1231 FILLER_119_205
*1232 FILLER_119_217
*1233 FILLER_119_223
*1234 FILLER_119_225
*1235 FILLER_119_237
*1236 FILLER_119_249
*1237 FILLER_119_261
*1238 FILLER_119_27
*1239 FILLER_119_273
*1240 FILLER_119_279
*1241 FILLER_119_281
*1242 FILLER_119_293
*1243 FILLER_119_3
*1244 FILLER_119_305
*1245 FILLER_119_317
*1246 FILLER_119_329
*1247 FILLER_119_335
*1248 FILLER_119_337
*1249 FILLER_119_349
*1250 FILLER_119_361
*1251 FILLER_119_373
*1252 FILLER_119_385
*1253 FILLER_119_39
*1254 FILLER_119_391
*1255 FILLER_119_393
*1256 FILLER_119_405
*1257 FILLER_119_417
*1258 FILLER_119_429
*1259 FILLER_119_441
*1260 FILLER_119_447
*1261 FILLER_119_449
*1262 FILLER_119_461
*1263 FILLER_119_473
*1264 FILLER_119_485
*1265 FILLER_119_497
*1266 FILLER_119_503
*1267 FILLER_119_505
*1268 FILLER_119_51
*1269 FILLER_119_517
*1270 FILLER_119_529
*1271 FILLER_119_541
*1272 FILLER_119_55
*1273 FILLER_119_553
*1274 FILLER_119_559
*1275 FILLER_119_561
*1276 FILLER_119_57
*1277 FILLER_119_573
*1278 FILLER_119_585
*1279 FILLER_119_597
*1280 FILLER_119_609
*1281 FILLER_119_615
*1282 FILLER_119_617
*1283 FILLER_119_629
*1284 FILLER_119_641
*1285 FILLER_119_653
*1286 FILLER_119_665
*1287 FILLER_119_671
*1288 FILLER_119_673
*1289 FILLER_119_685
*1290 FILLER_119_69
*1291 FILLER_119_697
*1292 FILLER_119_709
*1293 FILLER_119_721
*1294 FILLER_119_727
*1295 FILLER_119_729
*1296 FILLER_119_741
*1297 FILLER_119_753
*1298 FILLER_119_765
*1299 FILLER_119_777
*1300 FILLER_119_783
*1301 FILLER_119_785
*1302 FILLER_119_797
*1303 FILLER_119_809
*1304 FILLER_119_81
*1305 FILLER_119_821
*1306 FILLER_119_833
*1307 FILLER_119_839
*1308 FILLER_119_841
*1309 FILLER_119_853
*1310 FILLER_119_865
*1311 FILLER_119_877
*1312 FILLER_119_889
*1313 FILLER_119_895
*1314 FILLER_119_897
*1315 FILLER_119_906
*1316 FILLER_119_912
*1317 FILLER_119_93
*1318 FILLER_11_1122
*1319 FILLER_11_1134
*1320 FILLER_11_1146
*1321 FILLER_11_1158
*1322 FILLER_11_1166
*1323 FILLER_11_15
*1324 FILLER_11_27
*1325 FILLER_11_3
*1326 FILLER_11_39
*1327 FILLER_11_51
*1328 FILLER_11_55
*1329 FILLER_11_57
*1330 FILLER_11_69
*1331 FILLER_120_1005
*1332 FILLER_120_1017
*1333 FILLER_120_1029
*1334 FILLER_120_1035
*1335 FILLER_120_1037
*1336 FILLER_120_1049
*1337 FILLER_120_1061
*1338 FILLER_120_1073
*1339 FILLER_120_1085
*1340 FILLER_120_109
*1341 FILLER_120_1091
*1342 FILLER_120_1093
*1343 FILLER_120_1105
*1344 FILLER_120_1117
*1345 FILLER_120_1129
*1346 FILLER_120_1141
*1347 FILLER_120_1147
*1348 FILLER_120_1149
*1349 FILLER_120_121
*1350 FILLER_120_133
*1351 FILLER_120_139
*1352 FILLER_120_141
*1353 FILLER_120_15
*1354 FILLER_120_153
*1355 FILLER_120_165
*1356 FILLER_120_177
*1357 FILLER_120_189
*1358 FILLER_120_195
*1359 FILLER_120_197
*1360 FILLER_120_209
*1361 FILLER_120_221
*1362 FILLER_120_233
*1363 FILLER_120_245
*1364 FILLER_120_251
*1365 FILLER_120_253
*1366 FILLER_120_265
*1367 FILLER_120_27
*1368 FILLER_120_277
*1369 FILLER_120_289
*1370 FILLER_120_29
*1371 FILLER_120_3
*1372 FILLER_120_301
*1373 FILLER_120_307
*1374 FILLER_120_309
*1375 FILLER_120_321
*1376 FILLER_120_333
*1377 FILLER_120_345
*1378 FILLER_120_357
*1379 FILLER_120_363
*1380 FILLER_120_365
*1381 FILLER_120_377
*1382 FILLER_120_389
*1383 FILLER_120_401
*1384 FILLER_120_41
*1385 FILLER_120_413
*1386 FILLER_120_419
*1387 FILLER_120_421
*1388 FILLER_120_433
*1389 FILLER_120_445
*1390 FILLER_120_457
*1391 FILLER_120_469
*1392 FILLER_120_475
*1393 FILLER_120_477
*1394 FILLER_120_489
*1395 FILLER_120_501
*1396 FILLER_120_513
*1397 FILLER_120_525
*1398 FILLER_120_53
*1399 FILLER_120_531
*1400 FILLER_120_533
*1401 FILLER_120_545
*1402 FILLER_120_557
*1403 FILLER_120_569
*1404 FILLER_120_581
*1405 FILLER_120_587
*1406 FILLER_120_589
*1407 FILLER_120_601
*1408 FILLER_120_613
*1409 FILLER_120_625
*1410 FILLER_120_637
*1411 FILLER_120_643
*1412 FILLER_120_645
*1413 FILLER_120_65
*1414 FILLER_120_657
*1415 FILLER_120_669
*1416 FILLER_120_681
*1417 FILLER_120_693
*1418 FILLER_120_699
*1419 FILLER_120_701
*1420 FILLER_120_713
*1421 FILLER_120_725
*1422 FILLER_120_737
*1423 FILLER_120_749
*1424 FILLER_120_755
*1425 FILLER_120_757
*1426 FILLER_120_769
*1427 FILLER_120_77
*1428 FILLER_120_781
*1429 FILLER_120_793
*1430 FILLER_120_805
*1431 FILLER_120_811
*1432 FILLER_120_813
*1433 FILLER_120_825
*1434 FILLER_120_83
*1435 FILLER_120_837
*1436 FILLER_120_849
*1437 FILLER_120_85
*1438 FILLER_120_861
*1439 FILLER_120_867
*1440 FILLER_120_869
*1441 FILLER_120_881
*1442 FILLER_120_893
*1443 FILLER_120_905
*1444 FILLER_120_917
*1445 FILLER_120_923
*1446 FILLER_120_925
*1447 FILLER_120_937
*1448 FILLER_120_942
*1449 FILLER_120_955
*1450 FILLER_120_963
*1451 FILLER_120_97
*1452 FILLER_120_971
*1453 FILLER_120_977
*1454 FILLER_120_981
*1455 FILLER_120_993
*1456 FILLER_121_1007
*1457 FILLER_121_1009
*1458 FILLER_121_1021
*1459 FILLER_121_1033
*1460 FILLER_121_1045
*1461 FILLER_121_105
*1462 FILLER_121_1057
*1463 FILLER_121_1063
*1464 FILLER_121_1065
*1465 FILLER_121_1077
*1466 FILLER_121_1089
*1467 FILLER_121_1101
*1468 FILLER_121_111
*1469 FILLER_121_1113
*1470 FILLER_121_1119
*1471 FILLER_121_1121
*1472 FILLER_121_113
*1473 FILLER_121_1133
*1474 FILLER_121_1145
*1475 FILLER_121_1157
*1476 FILLER_121_1165
*1477 FILLER_121_125
*1478 FILLER_121_137
*1479 FILLER_121_149
*1480 FILLER_121_15
*1481 FILLER_121_161
*1482 FILLER_121_167
*1483 FILLER_121_169
*1484 FILLER_121_181
*1485 FILLER_121_193
*1486 FILLER_121_205
*1487 FILLER_121_217
*1488 FILLER_121_223
*1489 FILLER_121_225
*1490 FILLER_121_237
*1491 FILLER_121_249
*1492 FILLER_121_261
*1493 FILLER_121_27
*1494 FILLER_121_273
*1495 FILLER_121_279
*1496 FILLER_121_281
*1497 FILLER_121_293
*1498 FILLER_121_3
*1499 FILLER_121_305
*1500 FILLER_121_317
*1501 FILLER_121_329
*1502 FILLER_121_335
*1503 FILLER_121_337
*1504 FILLER_121_349